32
   29   30   31
C 	10.281645	7.133704	8.043889
C 	9.888133	6.973589	9.360875
C 	9.691511	8.105832	7.234960
C 	8.679318	8.880675	7.807814
C 	8.272023	8.720560	9.118196
C 	8.913161	7.789890	9.906902
C 	10.138516	8.333138	5.845749
C 	10.616038	7.326700	5.021550
C 	11.051786	7.555436	3.740058
C 	11.082968	8.829210	3.216318
C 	10.606936	9.867099	4.006674
C 	10.130557	9.618349	5.284864
C 	11.570398	9.126566	1.811423
C 	11.881768	8.068662	0.964937
C 	12.380533	8.320272	-0.308301
C 	12.565174	9.629786	-0.735052
C 	12.253804	10.687690	0.111434
C 	11.756416	10.436080	1.384672
H 	10.946339	6.586167	7.693078
H 	8.263380	9.529714	7.288614
H 	8.690274	7.711262	10.804978
H 	10.641151	6.457503	5.352963
H 	11.331626	6.839206	3.219207
H 	10.608938	10.736296	3.677324
H 	9.795514	10.326001	5.786317
H 	11.757988	7.192318	1.250538
H 	12.588597	7.612620	-0.874964
H 	12.377414	11.564034	-0.173342
H 	11.546805	11.143732	1.952160
X 	10.219620	6.452992	9.787014
X 	7.713763	9.143266	9.386832
X 	12.847466	9.749931	-1.419432
   0    1 S
   0    2 S
   0   18 S
   1    0 S
   1    5 S
   1   29 S
   2    0 S
   2    3 S
   2    6 S
   3    2 S
   3    4 S
   3   19 S
   4    3 S
   4    5 S
   4   30 S
   5    1 S
   5    4 S
   5   20 S
   6    2 S
   6    7 S
   6   11 S
   7    6 S
   7    8 S
   7   21 S
   8    7 S
   8    9 S
   8   22 S
   9    8 S
   9   10 S
   9   12 S
  10    9 S
  10   11 S
  10   23 S
  11    6 S
  11   10 S
  11   24 S
  12    9 S
  12   13 S
  12   17 S
  13   12 S
  13   14 S
  13   25 S
  14   13 S
  14   15 S
  14   26 S
  15   14 S
  15   16 S
  15   31 S
  16   15 S
  16   17 S
  16   27 S
  17   12 S
  17   16 S
  17   28 S
  18    0 S
  19    3 S
  20    5 S
  21    7 S
  22    8 S
  23   10 S
  24   11 S
  25   13 S
  26   14 S
  27   16 S
  28   17 S
  29    1 S
  30    4 S
  31   15 S
