32
   23   24   25   26   27   28   29   30   31
Mn 	18.445822	22.720569	23.162856
Mn 	15.084669	23.522886	21.889830
O 	13.675095	21.932248	21.920910
O 	11.594935	22.241428	22.656303
Mn 	11.661933	24.331951	22.957578
C 	17.549969	25.532427	22.374578
O 	18.460666	24.809092	22.853560
O 	16.467764	25.124270	21.868275
P 	21.900051	22.009981	22.706933
C 	12.902206	25.117272	20.199230
C 	13.688535	25.691641	24.009034
O 	18.300191	21.943996	21.163211
O 	16.181116	22.333907	20.505267
O 	20.546041	22.370648	23.231784
C 	16.316316	21.349631	24.032595
O 	14.041981	24.629383	20.373679
O 	11.934340	25.048538	21.001043
C 	17.329316	21.865514	20.346359
O 	12.588477	26.284006	23.935595
O 	13.851216	24.536404	23.499473
C 	12.551167	21.534589	22.312669
O 	16.208798	22.540860	23.569152
O 	17.410957	20.727523	23.931334
X 	17.651299	26.275494	22.383763
X 	21.978727	21.268928	22.622372
X 	22.040750	22.345187	22.050930
X 	22.452058	22.246441	23.156238
X 	12.784945	25.479943	19.553305
X 	14.253614	26.000917	24.393135
X 	15.746051	21.050119	24.416770
X 	17.447777	21.495519	19.704821
X 	12.458121	20.790867	22.339508
   0    6 S
   0   11 S
   0   13 S
   0   21 S
   0   22 S
   1    2 S
   1    7 S
   1   12 S
   1   15 S
   1   19 S
   1   21 S
   2    1 S
   2   20 S
   3    4 S
   3   20 S
   4    3 S
   4   16 S
   4   18 S
   4   19 S
   5    6 S
   5    7 S
   5   23 S
   6    0 S
   6    5 S
   7    1 S
   7    5 S
   8   13 S
   8   24 S
   8   25 S
   8   26 S
   9   15 S
   9   16 S
   9   27 S
  10   18 S
  10   19 S
  10   28 S
  11    0 S
  11   17 S
  12    1 S
  12   17 S
  13    0 S
  13    8 S
  14   21 S
  14   22 S
  14   29 S
  15    1 S
  15    9 S
  16    4 S
  16    9 S
  17   11 S
  17   12 S
  17   30 S
  18    4 S
  18   10 S
  19    1 S
  19    4 S
  19   10 S
  20    2 S
  20    3 S
  20   31 S
  21    0 S
  21    1 S
  21   14 S
  22    0 S
  22   14 S
  23    5 S
  24    8 S
  25    8 S
  26    8 S
  27    9 S
  28   10 S
  29   14 S
  30   17 S
  31   20 S
