30
   27   28   29
C 	4.996842	4.245973	12.924928
C 	3.979882	4.187872	11.824755
N 	3.838484	3.105098	11.045221
C 	3.041476	5.155999	11.442600
C 	2.329350	4.577794	10.390275
N 	2.797274	3.337808	10.157564
C 	1.217609	5.189242	9.571282
C 	0.418386	5.820889	13.109792
C 	1.564277	6.739304	12.801582
N 	1.588182	8.015953	13.243080
C 	2.739203	6.456571	12.093818
C 	3.497436	7.617640	12.130790
C 	4.828618	7.942006	11.519342
N 	2.787014	8.518036	12.824884
H 	5.489527	3.423872	12.949783
H 	5.601380	4.974243	12.766473
H 	4.552830	4.377708	13.766912
H 	0.916194	4.554802	8.916957
H 	0.487549	5.424750	10.147311
H 	1.542077	5.977787	9.128230
H 	-0.247633	6.297807	13.611565
H 	0.034145	5.502425	12.288002
H 	0.735175	5.076773	13.627099
H 	5.070261	8.845509	11.741178
H 	5.492931	7.338635	11.862350
H 	4.773116	7.851282	10.566750
H 	3.055127	9.320874	12.987067
X 	3.961838	2.387392	10.865825
X 	2.760972	2.636462	9.894322
X 	1.043761	8.307159	13.668879
   0    1 S
   0   14 S
   0   15 S
   0   16 S
   1    0 S
   1    2 S
   1    3 S
   2    1 S
   2    5 S
   2   27 S
   3    1 S
   3    4 S
   3   10 S
   4    3 S
   4    5 S
   4    6 S
   5    2 S
   5    4 S
   5   28 S
   6    4 S
   6   17 S
   6   18 S
   6   19 S
   7    8 S
   7   20 S
   7   21 S
   7   22 S
   8    7 S
   8    9 S
   8   10 S
   9    8 S
   9   13 S
   9   29 S
  10    3 S
  10    8 S
  10   11 S
  11   10 S
  11   12 S
  11   13 S
  12   11 S
  12   23 S
  12   24 S
  12   25 S
  13    9 S
  13   11 S
  13   26 S
  14    0 S
  15    0 S
  16    0 S
  17    6 S
  18    6 S
  19    6 S
  20    7 S
  21    7 S
  22    7 S
  23   12 S
  24   12 S
  25   12 S
  26   13 S
  27    2 S
  28    5 S
  29    9 S
