46
   40   41   42   43   44   45
Tb 	-2.648045	6.340617	9.088712
Tb 	-3.897118	5.690633	5.362589
C 	-3.224151	5.069675	11.526357
C 	-3.476795	4.369740	12.844316
C 	-4.738701	4.311609	13.344331
C 	-4.978254	3.717846	14.566911
C 	-3.968993	3.199970	15.292366
C 	-2.692688	3.226635	14.798132
C 	-2.466225	3.801047	13.532198
C 	-0.883602	5.122884	7.118711
C 	-4.044910	3.516665	7.927984
C 	-3.321012	6.961576	2.924943
C 	-3.068368	7.661511	1.606985
C 	-1.806462	7.719642	1.106970
C 	-1.566909	8.313404	-0.115610
C 	-2.576170	8.831280	-0.841066
C 	-3.852475	8.804616	-0.346831
C 	-4.078938	8.230203	0.919103
C 	-5.661561	6.908366	7.332590
C 	-2.500253	8.514586	6.523317
O 	-4.179743	5.532318	10.869979
O 	-2.025080	5.157260	11.130103
O 	-1.943916	5.642408	6.622164
O 	-0.644050	5.230549	8.344470
O 	-3.226767	4.072396	8.669913
O 	-4.302788	3.833675	6.729971
O 	-2.365420	6.498932	3.581321
O 	-4.520084	6.873990	3.321198
O 	-4.601248	6.388843	7.829137
O 	-5.901113	6.800701	6.106831
O 	-3.318396	7.958854	5.781387
O 	-2.242375	8.197575	7.721330
H 	-5.444268	4.674406	12.861658
H 	-5.848760	3.673013	14.893511
H 	-1.987122	2.871056	15.289476
H 	-1.611428	3.788473	13.165135
H 	-1.100896	7.356844	1.589643
H 	-0.696404	8.358238	-0.442210
H 	-4.558042	9.160194	-0.838175
H 	-4.933735	8.242777	1.286166
X 	-4.060784	2.914927	15.979989
X 	-0.403617	4.758756	6.672028
X 	-4.429880	2.936612	8.206977
X 	-2.484379	9.116323	-1.528689
X 	-6.141546	7.272495	7.779273
X 	-2.115283	9.094638	6.244324
   0    2 S
   0   20 S
   0   21 S
   0   22 S
   0   23 S
   0   24 S
   0   28 S
   0   31 S
   1   11 S
   1   22 S
   1   25 S
   1   26 S
   1   27 S
   1   28 S
   1   29 S
   1   30 S
   2    0 S
   2    3 S
   2   20 S
   2   21 S
   3    2 S
   3    4 S
   3    8 S
   4    3 S
   4    5 S
   4   32 S
   5    4 S
   5    6 S
   5   33 S
   6    5 S
   6    7 S
   6   40 S
   7    6 S
   7    8 S
   7   34 S
   8    3 S
   8    7 S
   8   35 S
   9   22 S
   9   23 S
   9   41 S
  10   24 S
  10   25 S
  10   42 S
  11    1 S
  11   12 S
  11   26 S
  11   27 S
  12   11 S
  12   13 S
  12   17 S
  13   12 S
  13   14 S
  13   36 S
  14   13 S
  14   15 S
  14   37 S
  15   14 S
  15   16 S
  15   43 S
  16   15 S
  16   17 S
  16   38 S
  17   12 S
  17   16 S
  17   39 S
  18   28 S
  18   29 S
  18   44 S
  19   30 S
  19   31 S
  19   45 S
  20    0 S
  20    2 S
  21    0 S
  21    2 S
  22    0 S
  22    1 S
  22    9 S
  23    0 S
  23    9 S
  24    0 S
  24   10 S
  25    1 S
  25   10 S
  26    1 S
  26   11 S
  27    1 S
  27   11 S
  28    0 S
  28    1 S
  28   18 S
  29    1 S
  29   18 S
  30    1 S
  30   19 S
  31    0 S
  31   19 S
  32    4 S
  33    5 S
  34    7 S
  35    8 S
  36   13 S
  37   14 S
  38   16 S
  39   17 S
  40    6 S
  41    9 S
  42   10 S
  43   15 S
  44   18 S
  45   19 S
