46
   40   41   42   43   44   45
Ho 	-0.991521	3.050329	8.949850
Ho 	-1.411880	4.126609	5.184914
C 	-3.608579	4.624825	7.666696
C 	-2.201671	3.783665	11.378485
C 	-2.910363	4.123849	12.642133
C 	-3.095963	5.399918	13.035079
C 	-3.762585	5.694169	14.278939
C 	-4.202600	4.639147	15.053524
C 	-3.991963	3.387480	14.686020
C 	-3.482030	3.087487	13.413891
C 	-2.179210	1.227236	7.039113
C 	1.205179	2.552113	6.468068
C 	-0.201729	3.393274	2.756279
C 	0.506963	3.053089	1.492631
C 	0.692563	1.777020	1.099685
C 	1.359185	1.482769	-0.144175
C 	1.799200	2.537791	-0.918760
C 	1.588563	3.789458	-0.551256
C 	1.078630	4.089451	0.720873
C 	-0.224190	5.949702	7.095652
O 	-3.145718	3.765017	8.461070
O 	-3.247280	4.824351	6.468068
O 	-2.116386	2.631040	11.002500
O 	-1.733045	4.748256	10.663266
O 	-2.137818	1.066466	8.302760
O 	-1.702162	2.257856	6.501991
O 	0.742318	3.411921	5.673694
O 	0.843880	2.352587	7.666696
O 	-0.287014	4.545898	3.132264
O 	-0.670355	2.428682	3.471498
O 	-0.265582	6.110472	5.832004
O 	-0.701239	4.919082	7.632773
H 	-2.792422	6.096089	12.497958
H 	-3.891960	6.574068	14.553153
H 	-4.188522	2.691308	15.276853
H 	-3.515213	2.219071	13.083138
H 	0.389021	1.080849	1.636806
H 	1.488560	0.602870	-0.418389
H 	1.785121	4.485630	-1.142089
H 	1.111813	4.957867	1.051626
X 	-4.163146	5.055655	7.930024
X 	-4.490426	4.770506	15.733524
X 	-2.487663	0.685265	6.622430
X 	1.759745	2.121283	6.204740
X 	2.087026	2.406432	-1.598760
X 	0.084262	6.491674	7.512334
   0    3 S
   0   20 S
   0   22 S
   0   23 S
   0   24 S
   0   25 S
   0   27 S
   0   31 S
   1   12 S
   1   21 S
   1   25 S
   1   26 S
   1   28 S
   1   29 S
   1   30 S
   1   31 S
   2   20 S
   2   21 S
   2   40 S
   3    0 S
   3    4 S
   3   22 S
   3   23 S
   4    3 S
   4    5 S
   4    9 S
   5    4 S
   5    6 S
   5   32 S
   6    5 S
   6    7 S
   6   33 S
   7    6 S
   7    8 S
   7   41 S
   8    7 S
   8    9 S
   8   34 S
   9    4 S
   9    8 S
   9   35 S
  10   24 S
  10   25 S
  10   42 S
  11   26 S
  11   27 S
  11   43 S
  12    1 S
  12   13 S
  12   28 S
  12   29 S
  13   12 S
  13   14 S
  13   18 S
  14   13 S
  14   15 S
  14   36 S
  15   14 S
  15   16 S
  15   37 S
  16   15 S
  16   17 S
  16   44 S
  17   16 S
  17   18 S
  17   38 S
  18   13 S
  18   17 S
  18   39 S
  19   30 S
  19   31 S
  19   45 S
  20    0 S
  20    2 S
  21    1 S
  21    2 S
  22    0 S
  22    3 S
  23    0 S
  23    3 S
  24    0 S
  24   10 S
  25    0 S
  25    1 S
  25   10 S
  26    1 S
  26   11 S
  27    0 S
  27   11 S
  28    1 S
  28   12 S
  29    1 S
  29   12 S
  30    1 S
  30   19 S
  31    0 S
  31    1 S
  31   19 S
  32    5 S
  33    6 S
  34    8 S
  35    9 S
  36   14 S
  37   15 S
  38   17 S
  39   18 S
  40    2 S
  41    7 S
  42   10 S
  43   11 S
  44   16 S
  45   19 S
