240
   228   229   230   231   232   233   234   235   236   237   238   239
C 	4.276670	5.023642	2.074655
C 	3.510416	4.093912	2.764417
C 	4.415989	3.473317	3.627291
N 	5.549539	4.953913	2.479924
N 	5.639779	4.012561	3.458205
C 	3.836549	6.027751	1.046721
H 	4.607552	6.557697	0.756860
H 	3.160535	6.618130	1.438570
H 	3.455005	5.558237	0.276442
C 	4.151599	2.332073	4.570682
H 	4.898856	1.697532	4.531765
H 	3.323602	1.878830	4.309001
H 	4.061359	2.676074	5.483208
C 	9.883730	-4.000164	-7.121729
C 	8.666273	-2.498650	-8.206024
C 	9.681085	-3.444651	-8.392555
N 	9.031985	-3.414434	-6.244093
N 	8.297394	-2.494001	-6.933856
H 	10.365014	-5.964219	-6.943249
H 	11.637883	-5.025192	-7.174065
H 	10.923873	-5.069354	-5.742204
C 	10.778221	-5.106543	-6.711092
H 	7.279416	-2.077947	-9.653988
H 	8.671022	-1.322541	-9.883462
H 	7.656210	-0.804217	-8.760250
C 	8.010840	-1.599136	-9.216513
C 	9.434638	5.658183	3.691704
C 	6.353789	4.031155	-0.428082
C 	4.276670	-4.308525	3.313275
N 	5.549539	-4.624633	3.050252
N 	5.639779	-5.001174	1.745877
C 	3.510416	-4.441011	2.163223
C 	4.415989	-4.877985	1.194335
H 	4.607552	-3.934308	5.300702
H 	3.160535	-4.554903	5.012183
H 	3.455005	-3.018524	4.675354
C 	3.836549	-3.920362	4.696825
H 	4.898856	-4.773390	-0.795776
H 	3.323602	-4.671120	-0.527386
H 	4.061359	-6.086634	-0.424056
C 	4.151599	-5.124363	-0.265706
C 	9.883730	8.167680	0.096620
C 	8.666273	8.355950	1.939118
N 	9.031985	7.114761	0.165060
N 	8.297394	7.251896	1.307059
C 	9.681085	8.990491	1.213123
H 	10.365014	8.995140	-1.693541
H 	11.637883	8.725518	-0.764911
H 	10.923873	7.507572	-1.519087
C 	10.778221	8.365248	-1.066850
C 	8.010840	8.781302	3.223364
H 	7.279416	9.399573	3.027439
H 	8.671022	9.220600	3.796377
H 	7.656210	7.988707	3.683653
C 	9.434638	-6.026201	3.054278
C 	6.353789	-1.644848	3.705124
C 	4.276670	-0.715118	-5.387929
N 	5.549539	-0.329279	-5.530176
C 	3.510416	0.347099	-4.927640
N 	5.639779	0.988613	-5.204082
C 	4.415989	1.404667	-4.821626
H 	4.607552	-2.623389	-6.057562
H 	3.160535	-2.063226	-6.450754
H 	3.455005	-2.539713	-4.951795
C 	3.836549	-2.107389	-5.743546
H 	4.898856	3.075858	-3.735989
C 	4.151599	2.792290	-4.304976
H 	4.061359	3.410560	-5.059151
H 	3.323602	2.792290	-3.781615
C 	9.883730	-4.167516	7.025108
C 	8.666273	-5.857300	6.266906
N 	9.031985	-3.700326	6.079033
N 	8.297394	-4.757894	5.626796
C 	9.681085	-5.545841	7.179432
H 	10.365014	-3.030921	8.636790
C 	10.778221	-3.258704	7.777942
H 	10.923873	-2.438218	7.261291
H 	11.637883	-3.700326	7.938976
H 	7.279416	-7.321626	6.626549
H 	8.671022	-7.898058	6.087085
C 	8.010840	-7.182166	5.993149
H 	7.656210	-7.184490	5.076597
C 	9.434638	0.368018	-6.745983
C 	6.353789	-2.386308	-3.277042
C 	11.555030	-5.023642	-2.074655
N 	10.282161	-4.953913	-2.479924
C 	12.321284	-4.093912	-2.764417
C 	11.415711	-3.473317	-3.627291
N 	10.191921	-4.012561	-3.458205
C 	11.995151	-6.027751	-1.046721
H 	11.224148	-6.557697	-0.756860
H 	12.671165	-6.618130	-1.438570
H 	12.376695	-5.558237	-0.276442
C 	11.680101	-2.332073	-4.570682
H 	10.932844	-1.697532	-4.531765
H 	12.508098	-1.878830	-4.309001
H 	11.770341	-2.676074	-5.483208
C 	5.947970	4.000164	7.121729
C 	6.150615	3.444651	8.392555
C 	7.165427	2.498650	8.206024
N 	6.799715	3.414434	6.244093
N 	7.534306	2.494001	6.933856
H 	5.466686	5.964219	6.943249
H 	4.193817	5.025192	7.174065
H 	4.907827	5.069354	5.742204
C 	5.053479	5.106543	6.711092
C 	7.820860	1.599136	9.216513
H 	8.552284	2.077947	9.653988
H 	7.160678	1.322541	9.883462
H 	8.175490	0.804217	8.760250
C 	6.397062	-5.658183	-3.691704
C 	9.477911	-4.031155	0.428082
C 	11.555030	4.308525	-3.313275
C 	12.321284	4.441011	-2.163223
C 	11.415711	4.877985	-1.194335
N 	10.282161	4.624633	-3.050252
N 	10.191921	5.001174	-1.745877
C 	11.995151	3.920362	-4.696825
H 	11.224148	3.934308	-5.300702
H 	12.671165	4.554903	-5.012183
H 	12.376695	3.018524	-4.675354
C 	11.680101	5.124363	0.265706
H 	10.932844	4.773390	0.795776
H 	12.508098	4.671120	0.527386
H 	11.770341	6.086634	0.424056
C 	5.947970	-8.167680	-0.096620
C 	6.150615	-8.990491	-1.213123
C 	7.165427	-8.355950	-1.939118
N 	6.799715	-7.114761	-0.165060
N 	7.534306	-7.251896	-1.307059
C 	5.053479	-8.365248	1.066850
H 	5.466686	-8.995140	1.693541
H 	4.193817	-8.725518	0.764911
H 	4.907827	-7.507572	1.519087
C 	7.820860	-8.781302	-3.223364
H 	8.552284	-9.399573	-3.027439
H 	7.160678	-9.220600	-3.796377
H 	8.175490	-7.988707	-3.683653
C 	6.397062	6.026201	-3.054278
C 	9.477911	1.644848	-3.705124
C 	11.555030	0.715118	5.387929
N 	10.282161	0.329279	5.530176
N 	10.191921	-0.988613	5.204082
C 	12.321284	-0.347099	4.927640
C 	11.415711	-1.404667	4.821626
H 	11.224148	2.623389	6.057562
H 	12.671165	2.063226	6.450754
H 	12.376695	2.539713	4.951795
C 	11.995151	2.107389	5.743546
H 	10.932844	-3.075858	3.735989
H 	12.508098	-2.792290	3.781615
H 	11.770341	-3.410560	5.059151
C 	11.680101	-2.792290	4.304976
C 	5.947970	4.167516	-7.025108
N 	6.799715	3.700326	-6.079033
N 	7.534306	4.757894	-5.626796
C 	6.150615	5.545841	-7.179432
C 	7.165427	5.857300	-6.266906
C 	5.053479	3.258704	-7.777942
H 	5.466686	3.030921	-8.636790
H 	4.193817	3.700326	-7.938976
H 	4.907827	2.438218	-7.261291
C 	7.820860	7.182166	-5.993149
H 	8.552284	7.321626	-6.626549
H 	7.160678	7.898058	-6.087085
H 	8.175490	7.184490	-5.076597
C 	6.397062	-0.368018	6.745983
C 	9.477911	2.386308	3.277042
Cu 	7.140466	5.796248	1.800360
Cu 	7.338046	3.846371	4.429643
Cu 	7.140466	-4.457282	4.119518
Cu 	7.338046	-5.759369	1.116234
Cu 	7.140466	-1.338966	-5.919878
Cu 	7.338046	1.912997	-5.545877
Cu 	8.691234	-5.796248	-1.800360
Cu 	8.493654	-3.846371	-4.429643
Cu 	8.691234	4.457282	-4.119518
Cu 	8.493654	5.759369	-1.116234
Cu 	8.691234	1.338966	5.919878
Cu 	8.493654	-1.912997	5.545877
H 	9.890591	4.951588	4.193594
H 	9.396642	6.474022	4.235194
H 	9.928587	5.841805	2.863721
H 	5.549539	3.861480	0.104672
H 	7.026636	3.347804	-0.232157
H 	6.127396	4.003263	-1.380867
H 	9.890591	-6.107553	2.191404
H 	9.396642	-6.904797	3.489070
H 	9.928587	-5.400958	3.627291
H 	5.549539	-2.021388	3.291803
H 	7.026636	-1.472848	3.015362
H 	6.127396	-0.805766	4.157361
H 	9.890591	1.155965	-6.384998
H 	9.396642	0.430775	-7.724264
H 	9.928587	-0.440847	-6.491012
H 	5.549539	-1.840091	-3.396475
H 	7.026636	-1.874956	-2.783204
H 	6.127396	-3.197497	-2.776495
H 	5.941109	-4.951588	-4.193594
H 	6.435058	-6.474022	-4.235194
H 	5.903113	-5.841805	-2.863721
H 	10.282161	-3.861480	-0.104672
H 	8.805064	-3.347804	0.232157
H 	9.704304	-4.003263	1.380867
H 	5.941109	6.107553	-2.191404
H 	6.435058	6.904797	-3.489070
H 	5.903113	5.400958	-3.627291
H 	10.282161	2.021388	-3.291803
H 	8.805064	1.472848	-3.015362
H 	9.704304	0.805766	-4.157361
H 	5.941109	-1.155965	6.384998
H 	6.435058	-0.430775	7.724264
H 	5.903113	0.440847	6.491012
H 	10.282161	1.840091	3.396475
H 	8.805064	1.874956	2.783204
H 	9.704304	3.197497	2.776495
O 	8.098442	5.234459	3.370039
O 	6.915814	5.414129	-0.077833
O 	8.098442	-5.535769	2.848155
O 	6.915814	-2.639659	4.727690
O 	8.098442	0.301310	-6.218194
O 	6.915814	-2.774470	-4.649857
O 	7.733258	-5.234459	-3.370039
O 	8.915886	-5.414129	0.077833
O 	7.733258	5.535769	-2.848155
O 	8.915886	2.639659	-4.727690
O 	7.733258	-0.301310	6.218194
O 	8.915886	2.774470	4.649857
X 	2.767906	3.996097	2.724273
X 	10.072330	-3.582603	-9.017372
X 	2.767906	-4.357338	2.098585
X 	10.072330	9.600575	1.406061
X 	2.767906	0.361241	-4.822858
X 	10.072330	-6.017972	7.611311
X 	13.063794	-3.996097	-2.724273
X 	5.759370	3.582603	9.017372
X 	13.063794	4.357338	-2.098585
X 	5.759370	-9.600575	-1.406061
X 	13.063794	-0.361241	4.822858
X 	5.759370	6.017972	-7.611311
   0    1 S
   0    3 S
   0    5 S
   1    0 S
   1    2 S
   1  228 S
   2    1 S
   2    4 S
   2    9 S
   3    0 S
   3    4 S
   3  168 S
   4    2 S
   4    3 S
   4  169 S
   5    0 S
   5    6 S
   5    7 S
   5    8 S
   6    5 S
   7    5 S
   8    5 S
   9    2 S
   9   10 S
   9   11 S
   9   12 S
  10    9 S
  11    9 S
  12    9 S
  13   15 S
  13   16 S
  13   21 S
  14   15 S
  14   17 S
  14   25 S
  15   13 S
  15   14 S
  15  229 S
  16   13 S
  16   17 S
  16  175 S
  17   14 S
  17   16 S
  17  172 S
  18   21 S
  19   21 S
  20   21 S
  21   13 S
  21   18 S
  21   19 S
  21   20 S
  22   25 S
  23   25 S
  24   25 S
  25   14 S
  25   22 S
  25   23 S
  25   24 S
  26  180 S
  26  181 S
  26  182 S
  26  216 S
  27  183 S
  27  184 S
  27  185 S
  27  217 S
  28   29 S
  28   31 S
  28   36 S
  29   28 S
  29   30 S
  29  170 S
  30   29 S
  30   32 S
  30  171 S
  31   28 S
  31   32 S
  31  230 S
  32   30 S
  32   31 S
  32   40 S
  33   36 S
  34   36 S
  35   36 S
  36   28 S
  36   33 S
  36   34 S
  36   35 S
  37   40 S
  38   40 S
  39   40 S
  40   32 S
  40   37 S
  40   38 S
  40   39 S
  41   43 S
  41   45 S
  41   49 S
  42   44 S
  42   45 S
  42   50 S
  43   41 S
  43   44 S
  43  177 S
  44   42 S
  44   43 S
  44  168 S
  45   41 S
  45   42 S
  45  231 S
  46   49 S
  47   49 S
  48   49 S
  49   41 S
  49   46 S
  49   47 S
  49   48 S
  50   42 S
  50   51 S
  50   52 S
  50   53 S
  51   50 S
  52   50 S
  53   50 S
  54  186 S
  54  187 S
  54  188 S
  54  218 S
  55  189 S
  55  190 S
  55  191 S
  55  219 S
  56   57 S
  56   58 S
  56   64 S
  57   56 S
  57   59 S
  57  172 S
  58   56 S
  58   60 S
  58  232 S
  59   57 S
  59   60 S
  59  173 S
  60   58 S
  60   59 S
  60   66 S
  61   64 S
  62   64 S
  63   64 S
  64   56 S
  64   61 S
  64   62 S
  64   63 S
  65   66 S
  66   60 S
  66   65 S
  66   67 S
  66   68 S
  67   66 S
  68   66 S
  69   71 S
  69   73 S
  69   75 S
  70   72 S
  70   73 S
  70   80 S
  71   69 S
  71   72 S
  71  179 S
  72   70 S
  72   71 S
  72  170 S
  73   69 S
  73   70 S
  73  233 S
  74   75 S
  75   69 S
  75   74 S
  75   76 S
  75   77 S
  76   75 S
  77   75 S
  78   80 S
  79   80 S
  80   70 S
  80   78 S
  80   79 S
  80   81 S
  81   80 S
  82  192 S
  82  193 S
  82  194 S
  82  220 S
  83  195 S
  83  196 S
  83  197 S
  83  221 S
  84   85 S
  84   86 S
  84   89 S
  85   84 S
  85   88 S
  85  174 S
  86   84 S
  86   87 S
  86  234 S
  87   86 S
  87   88 S
  87   93 S
  88   85 S
  88   87 S
  88  175 S
  89   84 S
  89   90 S
  89   91 S
  89   92 S
  90   89 S
  91   89 S
  92   89 S
  93   87 S
  93   94 S
  93   95 S
  93   96 S
  94   93 S
  95   93 S
  96   93 S
  97   98 S
  97  100 S
  97  105 S
  98   97 S
  98   99 S
  98  235 S
  99   98 S
  99  101 S
  99  106 S
 100   97 S
 100  101 S
 100  169 S
 101   99 S
 101  100 S
 101  178 S
 102  105 S
 103  105 S
 104  105 S
 105   97 S
 105  102 S
 105  103 S
 105  104 S
 106   99 S
 106  107 S
 106  108 S
 106  109 S
 107  106 S
 108  106 S
 109  106 S
 110  198 S
 110  199 S
 110  200 S
 110  222 S
 111  201 S
 111  202 S
 111  203 S
 111  223 S
 112  113 S
 112  115 S
 112  117 S
 113  112 S
 113  114 S
 113  236 S
 114  113 S
 114  116 S
 114  121 S
 115  112 S
 115  116 S
 115  176 S
 116  114 S
 116  115 S
 116  177 S
 117  112 S
 117  118 S
 117  119 S
 117  120 S
 118  117 S
 119  117 S
 120  117 S
 121  114 S
 121  122 S
 121  123 S
 121  124 S
 122  121 S
 123  121 S
 124  121 S
 125  126 S
 125  128 S
 125  130 S
 126  125 S
 126  127 S
 126  237 S
 127  126 S
 127  129 S
 127  134 S
 128  125 S
 128  129 S
 128  171 S
 129  127 S
 129  128 S
 129  174 S
 130  125 S
 130  131 S
 130  132 S
 130  133 S
 131  130 S
 132  130 S
 133  130 S
 134  127 S
 134  135 S
 134  136 S
 134  137 S
 135  134 S
 136  134 S
 137  134 S
 138  204 S
 138  205 S
 138  206 S
 138  224 S
 139  207 S
 139  208 S
 139  209 S
 139  225 S
 140  141 S
 140  143 S
 140  148 S
 141  140 S
 141  142 S
 141  178 S
 142  141 S
 142  144 S
 142  179 S
 143  140 S
 143  144 S
 143  238 S
 144  142 S
 144  143 S
 144  152 S
 145  148 S
 146  148 S
 147  148 S
 148  140 S
 148  145 S
 148  146 S
 148  147 S
 149  152 S
 150  152 S
 151  152 S
 152  144 S
 152  149 S
 152  150 S
 152  151 S
 153  154 S
 153  156 S
 153  158 S
 154  153 S
 154  155 S
 154  173 S
 155  154 S
 155  157 S
 155  176 S
 156  153 S
 156  157 S
 156  239 S
 157  155 S
 157  156 S
 157  162 S
 158  153 S
 158  159 S
 158  160 S
 158  161 S
 159  158 S
 160  158 S
 161  158 S
 162  157 S
 162  163 S
 162  164 S
 162  165 S
 163  162 S
 164  162 S
 165  162 S
 166  210 S
 166  211 S
 166  212 S
 166  226 S
 167  213 S
 167  214 S
 167  215 S
 167  227 S
 168    3 S
 168   44 S
 168  216 S
 168  217 S
 169    4 S
 169  100 S
 169  216 S
 169  227 S
 170   29 S
 170   72 S
 170  218 S
 170  219 S
 171   30 S
 171  128 S
 171  218 S
 171  223 S
 172   17 S
 172   57 S
 172  220 S
 172  221 S
 173   59 S
 173  154 S
 173  220 S
 173  225 S
 174   85 S
 174  129 S
 174  222 S
 174  223 S
 175   16 S
 175   88 S
 175  221 S
 175  222 S
 176  115 S
 176  155 S
 176  224 S
 176  225 S
 177   43 S
 177  116 S
 177  217 S
 177  224 S
 178  101 S
 178  141 S
 178  226 S
 178  227 S
 179   71 S
 179  142 S
 179  219 S
 179  226 S
 180   26 S
 181   26 S
 182   26 S
 183   27 S
 184   27 S
 185   27 S
 186   54 S
 187   54 S
 188   54 S
 189   55 S
 190   55 S
 191   55 S
 192   82 S
 193   82 S
 194   82 S
 195   83 S
 196   83 S
 197   83 S
 198  110 S
 199  110 S
 200  110 S
 201  111 S
 202  111 S
 203  111 S
 204  138 S
 205  138 S
 206  138 S
 207  139 S
 208  139 S
 209  139 S
 210  166 S
 211  166 S
 212  166 S
 213  167 S
 214  167 S
 215  167 S
 216   26 S
 216  168 S
 216  169 S
 217   27 S
 217  168 S
 217  177 S
 218   54 S
 218  170 S
 218  171 S
 219   55 S
 219  170 S
 219  179 S
 220   82 S
 220  172 S
 220  173 S
 221   83 S
 221  172 S
 221  175 S
 222  110 S
 222  174 S
 222  175 S
 223  111 S
 223  171 S
 223  174 S
 224  138 S
 224  176 S
 224  177 S
 225  139 S
 225  173 S
 225  176 S
 226  166 S
 226  178 S
 226  179 S
 227  167 S
 227  169 S
 227  178 S
 228    1 S
 229   15 S
 230   31 S
 231   45 S
 232   58 S
 233   73 S
 234   86 S
 235   98 S
 236  113 S
 237  126 S
 238  143 S
 239  156 S
