18
   14   15   16   17
Co 	4.255932	12.483978	11.316523
O 	6.444172	12.651479	11.009026
O 	5.521298	12.200859	12.956985
C 	4.004063	10.915065	9.357942
O 	2.475892	12.184701	12.188243
Co 	2.074805	13.477138	8.787237
O 	1.180610	13.035673	10.591349
C 	3.874943	15.288775	10.453264
C 	6.530547	12.398342	12.226590
C 	1.368517	12.543761	11.708275
O 	4.171050	14.502433	11.361891
O 	3.306309	15.005117	9.386928
O 	4.386641	10.522253	10.477928
O 	3.686917	12.132637	9.174488
X 	3.973751	10.426263	8.789916
X 	4.109906	15.996924	10.529532
X 	7.217366	12.359283	12.525345
X 	0.765452	12.445655	12.143232
   0    1 S
   0    2 S
   0    4 S
   0   10 S
   0   12 S
   0   13 S
   1    0 S
   1    8 S
   2    0 S
   2    8 S
   3   12 S
   3   13 S
   3   14 S
   4    0 S
   4    9 S
   5    6 S
   5   11 S
   5   13 S
   6    5 S
   6    9 S
   7   10 S
   7   11 S
   7   15 S
   8    1 S
   8    2 S
   8   16 S
   9    4 S
   9    6 S
   9   17 S
  10    0 S
  10    7 S
  11    5 S
  11    7 S
  12    0 S
  12    3 S
  13    0 S
  13    3 S
  13    5 S
  14    3 S
  15    7 S
  16    8 S
  17    9 S
