18
   16   17
H 	9.379522	2.904403	8.106166
H 	8.398088	6.789567	8.147555
H 	8.430763	6.804584	10.430195
H 	8.936169	5.647783	12.588666
H 	9.917603	1.762619	12.547277
H 	9.884927	1.747602	10.264637
C 	9.218032	3.688676	8.578215
C 	8.904407	4.819630	7.901701
C 	9.303926	3.677001	9.990223
C 	8.613385	6.013276	8.611947
C 	8.649587	6.024124	9.973667
C 	9.097659	4.863510	12.116617
C 	9.411284	3.732556	12.793131
C 	9.011765	4.875185	10.704609
C 	9.702305	2.538910	12.082885
C 	9.666104	2.528062	10.721165
X 	8.926881	4.836361	7.152224
X 	9.388809	3.715825	13.542608
   0    6 S
   1    9 S
   2   10 S
   3   11 S
   4   14 S
   5   15 S
   6    0 S
   6    7 S
   6    8 S
   7    6 S
   7    9 S
   7   16 S
   8    6 S
   8   13 S
   8   15 S
   9    1 S
   9    7 S
   9   10 S
  10    2 S
  10    9 S
  10   13 S
  11    3 S
  11   12 S
  11   13 S
  12   11 S
  12   14 S
  12   17 S
  13    8 S
  13   10 S
  13   11 S
  14    4 S
  14   12 S
  14   15 S
  15    5 S
  15    8 S
  15   14 S
  16    7 S
  17   12 S
