27
   21   22   23   24   25   26
O 	0.164417	5.331475	17.060613
Mn 	-0.877213	6.437545	15.521124
O 	-0.894809	3.414297	17.467473
Mn 	-2.865822	3.650850	16.822622
O 	-1.853514	7.743807	14.105184
O 	0.369070	8.180829	16.105546
Mn 	1.333048	9.051923	14.219626
O 	0.451558	5.700830	13.981635
O 	-0.364079	8.986151	13.003805
O 	-2.383886	7.061581	16.937064
O 	-3.220581	5.311787	18.038443
O 	2.438625	8.917459	16.176115
O 	2.048335	7.200109	13.574775
C 	-2.300684	3.699155	14.289368
C 	0.003312	4.265511	17.681251
C 	-1.516786	8.534126	13.212615
C 	1.425594	8.492325	16.752880
C 	1.444877	6.119819	13.360997
C 	-3.066764	6.540364	17.829632
O 	-2.259339	4.799866	14.936702
O 	-2.462883	2.612572	14.866133
X 	-2.278209	3.715886	13.539891
X 	0.477719	4.107140	18.240139
X 	-2.053019	8.766984	12.742795
X 	1.414922	8.466419	17.502357
X 	1.715343	5.699115	12.802109
X 	-3.424663	7.002617	18.299453
   0    1 S
   0   14 S
   1    0 S
   1    4 S
   1    5 S
   1    7 S
   1    9 S
   1   19 S
   2    3 S
   2   14 S
   3    2 S
   3   10 S
   3   19 S
   3   20 S
   4    1 S
   4   15 S
   5    1 S
   5    6 S
   5   16 S
   6    5 S
   6    8 S
   6   11 S
   6   12 S
   7    1 S
   7   17 S
   8    6 S
   8   15 S
   9    1 S
   9   18 S
  10    3 S
  10   18 S
  11    6 S
  11   16 S
  12    6 S
  12   17 S
  13   19 S
  13   20 S
  13   21 S
  14    0 S
  14    2 S
  14   22 S
  15    4 S
  15    8 S
  15   23 S
  16    5 S
  16   11 S
  16   24 S
  17    7 S
  17   12 S
  17   25 S
  18    9 S
  18   10 S
  18   26 S
  19    1 S
  19    3 S
  19   13 S
  20    3 S
  20   13 S
  21   13 S
  22   14 S
  23   15 S
  24   16 S
  25   17 S
  26   18 S
