40
   32   33   34   35   36   37   38   39
Co 	-0.047136	1.233560	2.852379
Co 	1.588442	-0.037732	-0.082915
Co 	-1.588442	0.037732	0.082915
H 	0.040601	-0.815463	1.605866
O 	0.020283	-0.099791	1.351222
H 	-0.040601	0.815463	-1.605866
O 	-0.020283	0.099791	-1.351222
Co 	0.047136	-1.233560	-2.852379
O 	2.058049	-1.087744	-3.238279
O 	3.065121	-0.071457	-1.500830
O 	-2.034148	-1.451938	-2.792077
O 	-2.986606	0.079058	-1.434137
O 	0.152331	2.128772	4.757789
O 	0.478552	-0.053074	4.703550
O 	0.321771	-3.032277	-1.760062
O 	1.559213	-2.150610	-0.116999
C 	-3.061785	0.646842	2.618709
C 	2.983919	0.728388	2.411421
C 	-0.527532	-1.037987	-5.315090
C 	-1.109475	3.113961	0.765244
C 	3.061785	-0.646842	-2.618709
C 	-2.983919	-0.728388	-2.411421
C 	0.527532	1.037987	5.315090
C 	1.109475	-3.113961	-0.765244
O 	-2.058049	1.087744	3.238279
O 	-3.065121	0.071457	1.500830
O 	2.986606	-0.079058	1.434137
O 	2.034148	1.451938	2.792077
O 	-0.152331	-2.128772	-4.757789
O 	-0.478552	0.053074	-4.703550
O 	-0.321771	3.032277	1.760062
O 	-1.559213	2.150610	0.116999
X 	-3.725174	0.723952	2.959986
X 	3.621962	0.775838	2.802764
X 	-0.804164	-1.077996	-6.011059
X 	-1.320407	3.792944	0.526518
X 	3.725174	-0.723952	-2.959986
X 	-3.621962	-0.775838	-2.802764
X 	0.804164	1.077996	6.011059
X 	1.320407	-3.792944	-0.526518
   0    3 S
   0    4 S
   0   12 S
   0   13 S
   0   24 S
   0   27 S
   0   30 S
   1    4 S
   1    5 S
   1    6 S
   1    9 S
   1   15 S
   1   26 S
   2    3 S
   2    4 S
   2    6 S
   2   11 S
   2   25 S
   2   31 S
   3    0 S
   3    2 S
   3    4 S
   4    0 S
   4    1 S
   4    2 S
   4    3 S
   5    1 S
   5    6 S
   5    7 S
   6    1 S
   6    2 S
   6    5 S
   6    7 S
   7    5 S
   7    6 S
   7    8 S
   7   10 S
   7   14 S
   7   28 S
   7   29 S
   8    7 S
   8   20 S
   9    1 S
   9   20 S
  10    7 S
  10   21 S
  11    2 S
  11   21 S
  12    0 S
  12   22 S
  13    0 S
  13   22 S
  14    7 S
  14   23 S
  15    1 S
  15   23 S
  16   24 S
  16   25 S
  16   32 S
  17   26 S
  17   27 S
  17   33 S
  18   28 S
  18   29 S
  18   34 S
  19   30 S
  19   31 S
  19   35 S
  20    8 S
  20    9 S
  20   36 S
  21   10 S
  21   11 S
  21   37 S
  22   12 S
  22   13 S
  22   38 S
  23   14 S
  23   15 S
  23   39 S
  24    0 S
  24   16 S
  25    2 S
  25   16 S
  26    1 S
  26   17 S
  27    0 S
  27   17 S
  28    7 S
  28   18 S
  29    7 S
  29   18 S
  30    0 S
  30   19 S
  31    2 S
  31   19 S
  32   16 S
  33   17 S
  34   18 S
  35   19 S
  36   20 S
  37   21 S
  38   22 S
  39   23 S
