42
   30   31   32   33   34   35   36   37   38   39   40   41
Mg 	4.436377	1.861342	0.993168
Mg 	7.803183	0.597380	1.036681
Mg 	5.776017	-0.597380	-1.036681
H 	5.489978	-0.364070	1.461780
O 	5.762385	0.330720	0.797462
O 	7.816815	-0.330720	-0.797462
Mg 	9.142823	-1.861342	-0.993168
H 	8.089222	0.364070	-1.461780
C 	5.375344	2.341442	-1.872843
P 	2.618304	0.514839	3.639411
P 	10.960896	-0.514839	-3.639411
C 	6.821533	-2.776381	-2.823301
O 	3.660550	0.865708	2.638222
O 	10.608644	-1.075535	0.227789
O 	9.878094	0.775386	1.244618
O 	7.962391	-1.154741	2.152967
O 	8.373744	-2.820847	0.707229
O 	7.543391	1.793948	2.702589
O 	5.680356	2.977870	2.211920
O 	9.918650	-0.865708	-2.638222
O 	2.970556	1.075535	-0.227789
O 	3.701106	-0.775386	-1.244618
O 	5.616809	1.154741	-2.152967
O 	5.205456	2.820847	-0.707229
O 	6.035809	-1.793948	-2.702589
O 	7.898844	-2.977870	-2.211920
C 	10.734026	-0.084764	0.992567
C 	8.203856	-2.341442	1.872843
C 	6.757667	2.776381	2.823301
C 	2.845174	0.084764	-0.992567
X 	5.332671	2.838762	-2.432622
X 	2.585795	1.025838	4.187429
X 	1.934135	0.432858	3.343284
X 	2.788061	-0.117863	4.004611
X 	10.993405	-1.025838	-4.187429
X 	11.645065	-0.432858	-3.343284
X 	10.791139	0.117863	-4.004611
X 	6.629755	-3.310211	-3.313960
X 	11.401468	-0.008419	1.326022
X 	8.246529	-2.838762	2.432622
X 	6.949445	3.310211	3.313960
X 	2.177732	0.008419	-1.326022
   0    4 S
   0   12 S
   0   18 S
   0   20 S
   0   23 S
   1    4 S
   1    5 S
   1   14 S
   1   15 S
   1   17 S
   2    4 S
   2    5 S
   2   21 S
   2   22 S
   2   24 S
   3    4 S
   4    0 S
   4    1 S
   4    2 S
   4    3 S
   5    1 S
   5    2 S
   5    6 S
   5    7 S
   6    5 S
   6   13 S
   6   16 S
   6   19 S
   6   25 S
   7    5 S
   8   22 S
   8   23 S
   8   30 S
   9   12 S
   9   31 S
   9   32 S
   9   33 S
  10   19 S
  10   34 S
  10   35 S
  10   36 S
  11   24 S
  11   25 S
  11   37 S
  12    0 S
  12    9 S
  13    6 S
  13   26 S
  14    1 S
  14   26 S
  15    1 S
  15   27 S
  16    6 S
  16   27 S
  17    1 S
  17   28 S
  18    0 S
  18   28 S
  19    6 S
  19   10 S
  20    0 S
  20   29 S
  21    2 S
  21   29 S
  22    2 S
  22    8 S
  23    0 S
  23    8 S
  24    2 S
  24   11 S
  25    6 S
  25   11 S
  26   13 S
  26   14 S
  26   38 S
  27   15 S
  27   16 S
  27   39 S
  28   17 S
  28   18 S
  28   40 S
  29   20 S
  29   21 S
  29   41 S
  30    8 S
  31    9 S
  32    9 S
  33    9 S
  34   10 S
  35   10 S
  36   10 S
  37   11 S
  38   26 S
  39   27 S
  40   28 S
  41   29 S
