12
   9   10   11
H 	14.657911	8.801740	6.390784
H 	18.257330	10.506632	6.101907
H 	17.177667	7.765234	3.342890
C 	15.474576	8.878809	5.951348
C 	15.733687	8.145372	4.771361
C 	16.449650	9.699353	6.426281
C 	17.645563	9.886231	5.781205
C 	17.940751	9.134628	4.633043
C 	16.994226	8.261569	4.107924
X 	15.203067	7.684143	4.510190
X 	16.310298	10.065224	7.065984
X 	18.601553	9.186083	4.282054
   0    3 S
   1    6 S
   2    8 S
   3    0 S
   3    4 S
   3    5 S
   4    3 S
   4    8 S
   4    9 S
   5    3 S
   5    6 S
   5   10 S
   6    1 S
   6    5 S
   6    7 S
   7    6 S
   7    8 S
   7   11 S
   8    2 S
   8    4 S
   8    7 S
   9    4 S
  10    5 S
  11    7 S
