62
   50   51   52   53   54   55   56   57   58   59   60   61
C 	10.058019	9.171886	0.000000
C 	5.295391	11.921591	-3.888669
C 	10.058019	14.671295	3.888669
C 	5.295391	17.420999	0.000000
C 	5.295391	14.671295	3.888669
C 	5.295391	9.171886	0.000000
C 	10.058019	17.420999	0.000000
C 	10.058019	11.921591	-3.888669
C 	7.676705	16.046147	-3.888669
C 	2.914077	13.296443	0.000000
C 	12.439332	13.296443	0.000000
C 	7.676705	10.546738	3.888669
Eu 	7.676705	11.001477	-1.622786
O 	5.868380	12.252406	-0.738245
O 	9.485029	12.252406	-0.738245
Eu 	5.689206	12.148960	1.622786
Eu 	9.664204	14.443926	-1.622786
O 	7.676705	11.208369	0.738245
O 	7.676705	13.296443	-2.214736
Eu 	9.664204	12.148960	1.622786
Eu 	5.689206	14.443926	-1.622786
O 	7.676705	13.296443	2.214736
O 	5.868380	14.340479	0.738245
O 	7.676705	15.384516	-0.738245
O 	9.485029	14.340479	0.738245
Eu 	7.676705	15.591409	1.622786
O 	9.199609	9.328518	-0.940577
O 	6.153800	11.087017	-3.427470
O 	9.199609	15.505868	3.427470
O 	6.153800	17.264367	0.940577
O 	5.001834	13.510604	3.427470
O 	5.001834	9.993606	0.940577
O 	10.351576	16.599279	-0.940577
O 	10.351576	13.082281	-3.427470
O 	6.524738	15.720030	-3.427470
O 	3.478929	13.961531	-0.940577
O 	11.874480	12.631355	0.940577
O 	8.828671	10.872856	3.427470
O 	9.199609	17.264367	0.940577
O 	6.153800	15.505868	3.427470
O 	9.199609	11.087017	-3.427470
O 	6.153800	9.328518	-0.940577
O 	5.001834	13.082281	-3.427470
O 	5.001834	16.599279	-0.940577
O 	10.351576	9.993606	0.940577
O 	10.351576	13.510604	3.427470
O 	6.524738	10.872856	3.427470
O 	3.478929	12.631355	0.940577
O 	11.874480	13.961531	-0.940577
O 	8.828671	15.720030	-3.427470
X 	10.433019	8.522367	0.000000
X 	4.920391	11.705084	-4.501042
X 	10.433019	14.887801	4.501042
X 	4.920391	18.070518	0.000000
X 	4.920391	14.887801	4.501042
X 	4.920391	8.522367	0.000000
X 	10.433019	18.070518	0.000000
X 	10.433019	11.705084	-4.501042
X 	7.676705	16.479160	-4.501042
X 	2.164077	13.296443	0.000000
X 	13.189332	13.296443	0.000000
X 	7.676705	10.113726	4.501042
   0   26 S
   0   44 S
   0   50 S
   1   27 S
   1   42 S
   1   51 S
   2   28 S
   2   45 S
   2   52 S
   3   29 S
   3   43 S
   3   53 S
   4   30 S
   4   39 S
   4   54 S
   5   31 S
   5   41 S
   5   55 S
   6   32 S
   6   38 S
   6   56 S
   7   33 S
   7   40 S
   7   57 S
   8   34 S
   8   49 S
   8   58 S
   9   35 S
   9   47 S
   9   59 S
  10   36 S
  10   48 S
  10   60 S
  11   37 S
  11   46 S
  11   61 S
  12   13 S
  12   14 S
  12   17 S
  12   18 S
  12   26 S
  12   27 S
  12   40 S
  12   41 S
  13   12 S
  13   15 S
  13   20 S
  14   12 S
  14   16 S
  14   19 S
  15   13 S
  15   17 S
  15   21 S
  15   22 S
  15   30 S
  15   31 S
  15   46 S
  15   47 S
  16   14 S
  16   18 S
  16   23 S
  16   24 S
  16   32 S
  16   33 S
  16   48 S
  16   49 S
  17   12 S
  17   15 S
  17   19 S
  18   12 S
  18   16 S
  18   20 S
  19   14 S
  19   17 S
  19   21 S
  19   24 S
  19   36 S
  19   37 S
  19   44 S
  19   45 S
  20   13 S
  20   18 S
  20   22 S
  20   23 S
  20   34 S
  20   35 S
  20   42 S
  20   43 S
  21   15 S
  21   19 S
  21   25 S
  22   15 S
  22   20 S
  22   25 S
  23   16 S
  23   20 S
  23   25 S
  24   16 S
  24   19 S
  24   25 S
  25   21 S
  25   22 S
  25   23 S
  25   24 S
  25   28 S
  25   29 S
  25   38 S
  25   39 S
  26    0 S
  26   12 S
  27    1 S
  27   12 S
  28    2 S
  28   25 S
  29    3 S
  29   25 S
  30    4 S
  30   15 S
  31    5 S
  31   15 S
  32    6 S
  32   16 S
  33    7 S
  33   16 S
  34    8 S
  34   20 S
  35    9 S
  35   20 S
  36   10 S
  36   19 S
  37   11 S
  37   19 S
  38    6 S
  38   25 S
  39    4 S
  39   25 S
  40    7 S
  40   12 S
  41    5 S
  41   12 S
  42    1 S
  42   20 S
  43    3 S
  43   20 S
  44    0 S
  44   19 S
  45    2 S
  45   19 S
  46   11 S
  46   15 S
  47    9 S
  47   15 S
  48   10 S
  48   16 S
  49    8 S
  49   16 S
  50    0 S
  51    1 S
  52    2 S
  53    3 S
  54    4 S
  55    5 S
  56    6 S
  57    7 S
  58    8 S
  59    9 S
  60   10 S
  61   11 S
