41
   33   34   35   36   37   38   39   40
Co 	5.699940	2.309816	22.913078
Co 	2.504882	2.916302	22.656164
Co 	4.232650	4.723884	25.113800
O 	4.115829	2.939470	24.037925
H 	3.935518	2.230437	24.689377
O 	4.349471	6.508297	26.189676
Co 	2.765360	7.137951	27.314523
Co 	5.960418	6.531466	27.571437
H 	4.529782	7.217331	25.538224
O 	2.406685	0.847982	22.552193
O 	4.077735	1.684531	21.463258
O 	3.086448	4.597293	21.796016
O 	3.110151	5.789434	23.677793
O 	2.476100	4.145790	26.197712
O 	1.277414	8.292484	28.610646
O 	2.503189	9.169678	27.023956
O 	2.175582	5.358068	28.052868
O 	5.355149	3.658334	26.549808
O 	5.378852	4.850474	28.431585
O 	4.387565	7.763237	28.764342
O 	6.058615	8.599786	27.675408
C 	6.815413	0.131390	22.248316
C 	6.400613	5.133462	22.866115
C 	3.244749	5.671564	22.416578
C 	3.384427	0.690368	21.798276
C 	1.649887	9.316378	27.979285
C 	2.064687	4.314305	27.361486
C 	5.220551	3.776203	27.811023
C 	5.080873	8.757400	28.429324
O 	7.187886	1.155284	21.616955
O 	5.962111	0.278090	23.203645
O 	5.989200	5.301978	24.029889
O 	6.289718	4.089699	22.174732
X 	7.051171	-0.560928	22.082142
X 	6.741243	5.717479	22.541469
X 	3.428085	6.278465	22.015879
X 	3.545315	-0.000005	21.553328
X 	1.414129	10.008696	28.145459
X 	1.724057	3.730288	27.686132
X 	5.037215	3.169303	28.211722
X 	4.919985	9.447773	28.674273
   0    3 S
   0   10 S
   0   29 S
   0   30 S
   0   32 S
   1    3 S
   1    9 S
   1   10 S
   1   11 S
   2    3 S
   2    5 S
   2   12 S
   2   13 S
   2   17 S
   2   31 S
   3    0 S
   3    1 S
   3    2 S
   3    4 S
   4    3 S
   5    2 S
   5    6 S
   5    7 S
   5    8 S
   6    5 S
   6   14 S
   6   15 S
   6   16 S
   6   19 S
   7    5 S
   7   18 S
   7   19 S
   7   20 S
   8    5 S
   9    1 S
   9   24 S
  10    0 S
  10    1 S
  10   24 S
  11    1 S
  11   23 S
  12    2 S
  12   23 S
  13    2 S
  13   26 S
  14    6 S
  14   25 S
  15    6 S
  15   25 S
  16    6 S
  16   26 S
  17    2 S
  17   27 S
  18    7 S
  18   27 S
  19    6 S
  19    7 S
  19   28 S
  20    7 S
  20   28 S
  21   29 S
  21   30 S
  21   33 S
  22   31 S
  22   32 S
  22   34 S
  23   11 S
  23   12 S
  23   35 S
  24    9 S
  24   10 S
  24   36 S
  25   14 S
  25   15 S
  25   37 S
  26   13 S
  26   16 S
  26   38 S
  27   17 S
  27   18 S
  27   39 S
  28   19 S
  28   20 S
  28   40 S
  29    0 S
  29   21 S
  30    0 S
  30   21 S
  31    2 S
  31   22 S
  32    0 S
  32   22 S
  33   21 S
  34   22 S
  35   23 S
  36   24 S
  37   25 S
  38   26 S
  39   27 S
  40   28 S
