25
   21   22   23   24
H 	0.084653	9.230103	20.435099
H 	-0.270890	5.233456	20.872080
H 	-2.320339	7.721425	23.280493
H 	1.690520	7.731485	19.302467
H 	1.657506	6.182446	19.566162
H 	0.163380	8.681175	17.619842
H 	-1.330745	6.280815	14.789517
H 	0.428344	4.706540	18.041754
C 	-0.275969	8.494319	20.874591
C 	-1.172444	8.668047	21.911791
C 	0.088886	7.170254	20.491354
C 	-0.479983	6.099474	21.140546
C 	-1.379844	6.307639	22.213408
C 	-1.721842	7.583142	22.582580
C 	1.108954	6.957616	19.367763
C 	0.390250	6.750668	18.068626
C 	0.005926	7.820595	17.303408
C 	-0.621353	7.654892	16.055253
C 	-0.896475	6.397093	15.603455
C 	-0.527388	5.287488	16.360888
C 	0.142217	5.451637	17.564592
X 	-1.408202	9.360365	22.077964
X 	-1.720474	5.723622	22.538054
X 	-0.804688	8.261792	15.654553
X 	-0.688277	4.597114	16.115939
   0    8 S
   1   11 S
   2   13 S
   3   14 S
   4   14 S
   5   16 S
   6   18 S
   7   20 S
   8    0 S
   8    9 S
   8   10 S
   9    8 S
   9   13 S
   9   21 S
  10    8 S
  10   11 S
  10   14 S
  11    1 S
  11   10 S
  11   12 S
  12   11 S
  12   13 S
  12   22 S
  13    2 S
  13    9 S
  13   12 S
  14    3 S
  14    4 S
  14   10 S
  14   15 S
  15   14 S
  15   16 S
  15   20 S
  16    5 S
  16   15 S
  16   17 S
  17   16 S
  17   18 S
  17   23 S
  18    6 S
  18   17 S
  18   19 S
  19   18 S
  19   20 S
  19   24 S
  20    7 S
  20   15 S
  20   19 S
  21    9 S
  22   12 S
  23   17 S
  24   19 S
