66
   56   57   58   59   60   61   62   63   64   65
Eu 	4.975570	13.532445	36.244788
Eu 	2.254146	16.485955	37.307620
C 	-0.159442	18.113103	34.076831
C 	-1.588856	19.186260	31.962199
C 	-0.228099	19.501454	33.885594
C 	-1.520246	17.820423	32.157113
C 	-0.951145	20.049289	32.841150
C 	-0.820228	17.259079	33.212590
C 	4.192568	18.515349	37.872135
C 	5.271557	19.492448	38.122213
C 	7.429686	20.310449	37.655155
C 	5.110084	20.556600	39.048973
C 	6.107854	21.499178	39.258598
C 	7.280223	21.374602	38.537784
C 	6.450228	19.375376	37.419787
C 	0.643626	17.557762	35.191150
C 	3.630842	15.201318	34.257034
C 	7.389158	11.905297	39.475577
C 	7.457815	10.516946	39.666814
C 	8.749962	12.197977	41.395295
C 	8.180860	9.969111	40.711258
C 	8.049944	12.759321	40.339818
C 	8.818572	10.832140	41.590209
C 	3.037147	11.503051	35.680273
C 	1.958159	10.525952	35.430195
C 	-0.199971	9.707951	35.897253
C 	2.119632	9.461800	34.503434
C 	1.121861	8.519222	34.293810
C 	-0.050507	8.643798	35.014624
C 	0.779487	10.643024	36.132620
C 	6.586089	12.460638	38.361258
O 	6.736604	13.664376	38.014459
O 	4.167500	11.402489	35.106196
O 	5.737534	11.737194	37.759600
O 	2.831181	12.456135	36.488246
O 	3.854269	14.611456	38.056016
O 	2.952528	15.849715	39.624153
O 	0.493112	16.354024	35.537949
O 	3.062216	18.615911	38.446211
O 	1.492181	18.281206	35.792808
O 	4.398535	17.562265	37.064162
C 	3.598874	14.817082	39.295374
O 	3.375446	15.406944	35.496392
O 	4.277187	14.168685	33.928255
H 	0.221306	20.064299	34.470336
H 	-1.007809	20.970854	32.734499
H 	-0.795630	16.337514	33.333951
H 	4.316773	20.622641	39.530742
H 	5.988951	22.195605	39.861727
H 	6.579851	18.687955	36.809302
H 	7.008409	9.954101	39.082072
H 	8.237525	9.047546	40.817909
H 	8.025346	13.680886	40.218457
H 	2.912942	9.395759	34.021666
H 	1.240764	7.822795	33.690680
H 	0.649864	11.330445	36.743105
X 	-1.990564	19.341512	31.348173
X 	-1.895674	17.510337	31.586673
X 	8.114031	20.383347	37.357064
X 	7.905618	21.788412	38.525855
X 	3.396979	15.682683	33.731586
X 	9.125390	12.508063	41.965734
X 	9.220279	10.676888	42.204235
X 	-0.884315	9.635053	36.195344
X 	-0.675902	8.229988	35.026552
X 	3.832737	14.335717	39.820822
   0   23 S
   0   30 S
   0   31 S
   0   32 S
   0   33 S
   0   34 S
   0   35 S
   0   42 S
   0   43 S
   1    8 S
   1   15 S
   1   35 S
   1   36 S
   1   37 S
   1   38 S
   1   39 S
   1   40 S
   1   42 S
   2    4 S
   2    7 S
   2   15 S
   3    5 S
   3    6 S
   3   56 S
   4    2 S
   4    6 S
   4   44 S
   5    3 S
   5    7 S
   5   57 S
   6    3 S
   6    4 S
   6   45 S
   7    2 S
   7    5 S
   7   46 S
   8    1 S
   8    9 S
   8   38 S
   8   40 S
   9    8 S
   9   11 S
   9   14 S
  10   13 S
  10   14 S
  10   58 S
  11    9 S
  11   12 S
  11   47 S
  12   11 S
  12   13 S
  12   48 S
  13   10 S
  13   12 S
  13   59 S
  14    9 S
  14   10 S
  14   49 S
  15    1 S
  15    2 S
  15   37 S
  15   39 S
  16   42 S
  16   43 S
  16   60 S
  17   18 S
  17   21 S
  17   30 S
  18   17 S
  18   20 S
  18   50 S
  19   21 S
  19   22 S
  19   61 S
  20   18 S
  20   22 S
  20   51 S
  21   17 S
  21   19 S
  21   52 S
  22   19 S
  22   20 S
  22   62 S
  23    0 S
  23   24 S
  23   32 S
  23   34 S
  24   23 S
  24   26 S
  24   29 S
  25   28 S
  25   29 S
  25   63 S
  26   24 S
  26   27 S
  26   53 S
  27   26 S
  27   28 S
  27   54 S
  28   25 S
  28   27 S
  28   64 S
  29   24 S
  29   25 S
  29   55 S
  30    0 S
  30   17 S
  30   31 S
  30   33 S
  31    0 S
  31   30 S
  32    0 S
  32   23 S
  33    0 S
  33   30 S
  34    0 S
  34   23 S
  35    0 S
  35    1 S
  35   41 S
  36    1 S
  36   41 S
  37    1 S
  37   15 S
  38    1 S
  38    8 S
  39    1 S
  39   15 S
  40    1 S
  40    8 S
  41   35 S
  41   36 S
  41   65 S
  42    0 S
  42    1 S
  42   16 S
  43    0 S
  43   16 S
  44    4 S
  45    6 S
  46    7 S
  47   11 S
  48   12 S
  49   14 S
  50   18 S
  51   20 S
  52   21 S
  53   26 S
  54   27 S
  55   29 S
  56    3 S
  57    5 S
  58   10 S
  59   13 S
  60   16 S
  61   19 S
  62   22 S
  63   25 S
  64   28 S
  65   41 S
