30
   27   28   29
H 	2.189473	13.475917	6.337780
N 	2.078842	12.636903	6.188101
H 	6.034296	14.591705	12.332996
H 	7.511289	15.415710	14.561634
H 	4.878210	14.359063	10.575094
H 	8.701385	12.296799	16.790272
H 	7.883735	10.783871	15.219928
H 	3.661059	14.076890	8.607567
H 	3.923493	10.144479	9.048881
H 	5.100923	10.389129	10.990665
N 	6.249240	13.830739	12.672441
N 	6.437315	11.610878	12.965547
C 	3.654818	12.065657	8.648021
C 	6.977319	13.611604	13.815077
C 	7.109731	12.239764	14.006314
C 	7.542049	14.498648	14.712417
C 	8.147267	13.995840	15.830413
C 	2.854219	11.884046	7.404985
N 	2.173732	10.805728	6.426601
C 	4.689275	13.502037	10.266174
C 	8.273909	12.608990	16.025327
C 	7.778075	11.700933	15.109600
C 	5.946855	12.639008	12.204280
C 	5.138758	12.410868	10.972277
C 	3.949947	13.335435	9.089335
C 	4.109110	11.001505	9.361479
C 	4.825836	11.139589	10.516252
X 	1.703415	12.326817	5.617662
X 	8.381130	14.477205	16.355861
X 	1.772024	10.960980	5.812576
   0    1 S
   1    0 S
   1   17 S
   1   27 S
   2   10 S
   3   15 S
   4   19 S
   5   20 S
   6   21 S
   7   24 S
   8   25 S
   9   26 S
  10    2 S
  10   13 S
  10   22 S
  11   14 S
  11   22 S
  12   17 S
  12   24 S
  12   25 S
  13   10 S
  13   14 S
  13   15 S
  14   11 S
  14   13 S
  14   21 S
  15    3 S
  15   13 S
  15   16 S
  16   15 S
  16   20 S
  16   28 S
  17    1 S
  17   12 S
  17   18 S
  18   17 S
  18   29 S
  19    4 S
  19   23 S
  19   24 S
  20    5 S
  20   16 S
  20   21 S
  21    6 S
  21   14 S
  21   20 S
  22   10 S
  22   11 S
  22   23 S
  23   19 S
  23   22 S
  23   26 S
  24    7 S
  24   12 S
  24   19 S
  25    8 S
  25   12 S
  25   26 S
  26    9 S
  26   23 S
  26   25 S
  27    1 S
  27   29 S
  28   16 S
  29   18 S
  29   27 S
