28
   22   23   24   25   26   27
Fe 	5.706842	14.861805	17.573496
Fe 	7.010195	17.573496	16.165158
O 	5.688907	16.183093	16.183093
Fe 	4.298504	16.165158	14.861805
O 	2.760246	15.876885	16.110915
O 	3.744486	14.997630	17.915355
O 	5.995115	16.110915	19.111754
C 	6.428181	17.331373	19.120502
C 	4.894954	13.219437	15.240410
O 	6.874370	17.915355	18.127514
C 	6.631590	16.977046	13.219437
O 	7.650826	14.553629	17.401363
O 	8.589134	16.401813	16.506798
O 	4.470637	14.221174	14.553629
O 	5.365202	13.282866	16.401813
C 	4.540627	19.120502	15.443819
O 	7.318371	17.401363	14.221174
O 	5.470187	16.506798	13.282866
C 	8.652563	15.240410	16.977046
O 	5.761085	19.111754	15.876885
O 	3.956645	18.127514	14.997630
C 	2.751498	15.443819	17.331373
X 	6.427052	17.701530	19.772792
X 	4.800417	12.540090	14.937012
X 	6.934988	17.071583	12.540090
X 	4.170470	19.772792	15.444948
X 	9.331910	14.937012	17.071583
X 	2.099208	15.444948	17.701530
   0    2 S
   0    5 S
   0    6 S
   0   11 S
   0   14 S
   1    2 S
   1    9 S
   1   12 S
   1   16 S
   1   19 S
   2    0 S
   2    1 S
   2    3 S
   3    2 S
   3    4 S
   3   13 S
   3   17 S
   3   20 S
   4    3 S
   4   21 S
   5    0 S
   5   21 S
   6    0 S
   6    7 S
   7    6 S
   7    9 S
   7   22 S
   8   13 S
   8   14 S
   8   23 S
   9    1 S
   9    7 S
  10   16 S
  10   17 S
  10   24 S
  11    0 S
  11   18 S
  12    1 S
  12   18 S
  13    3 S
  13    8 S
  14    0 S
  14    8 S
  15   19 S
  15   20 S
  15   25 S
  16    1 S
  16   10 S
  17    3 S
  17   10 S
  18   11 S
  18   12 S
  18   26 S
  19    1 S
  19   15 S
  20    3 S
  20   15 S
  21    4 S
  21    5 S
  21   27 S
  22    7 S
  23    8 S
  24   10 S
  25   15 S
  26   18 S
  27   21 S
