36
   30   31   32   33   34   35
Co 	1.175066	7.352369	0.333007
C 	-1.505662	6.237635	-0.956853
Co 	-1.175066	8.927531	-0.333007
C 	3.395502	5.727012	1.587437
C 	2.118759	4.405011	0.481687
N 	2.344066	5.724314	0.795566
N 	3.844673	4.477835	1.813499
C 	3.033710	3.628928	1.100968
H 	3.779681	6.495184	1.945442
H 	1.439225	4.094573	-0.071731
C 	1.505662	10.042265	0.956853
N 	-2.344066	10.555586	-0.795566
C 	-3.395502	10.552888	-1.587437
C 	-2.118759	11.874889	-0.481687
N 	-3.844673	11.802065	-1.813499
C 	-3.033710	12.650972	-1.100968
C 	-0.954669	7.849499	2.385829
O 	2.155588	8.967506	1.049669
O 	0.377679	10.158286	0.411477
O 	-1.650812	8.524114	1.587872
O 	0.155982	7.327237	2.124987
O 	-2.155588	7.312394	-1.049669
H 	-1.439225	12.185327	0.071731
H 	-3.779681	9.784716	-1.945442
O 	-0.377679	6.121614	-0.411477
O 	1.650812	7.755786	-1.587872
O 	-0.155982	8.952663	-2.124987
C 	0.954669	8.430401	-2.385829
H 	3.101591	2.702013	1.054234
H 	-3.101591	13.577887	-1.054234
X 	-1.814869	5.618099	-1.245064
X 	4.379349	4.262589	2.293385
X 	1.814869	10.661801	1.245064
X 	-4.379349	12.017311	-2.293385
X 	-1.237246	7.739515	3.071798
X 	1.237246	8.540385	-3.071798
   0    5 S
   0   17 S
   0   20 S
   0   24 S
   0   25 S
   1   21 S
   1   24 S
   1   30 S
   2   11 S
   2   18 S
   2   19 S
   2   21 S
   2   26 S
   3    5 S
   3    6 S
   3    8 S
   4    5 S
   4    7 S
   4    9 S
   5    0 S
   5    3 S
   5    4 S
   6    3 S
   6    7 S
   6   31 S
   7    4 S
   7    6 S
   7   28 S
   8    3 S
   9    4 S
  10   17 S
  10   18 S
  10   32 S
  11    2 S
  11   12 S
  11   13 S
  12   11 S
  12   14 S
  12   23 S
  13   11 S
  13   15 S
  13   22 S
  14   12 S
  14   15 S
  14   33 S
  15   13 S
  15   14 S
  15   29 S
  16   19 S
  16   20 S
  16   34 S
  17    0 S
  17   10 S
  18    2 S
  18   10 S
  19    2 S
  19   16 S
  20    0 S
  20   16 S
  21    1 S
  21    2 S
  22   13 S
  23   12 S
  24    0 S
  24    1 S
  25    0 S
  25   27 S
  26    2 S
  26   27 S
  27   25 S
  27   26 S
  27   35 S
  28    7 S
  29   15 S
  30    1 S
  31    6 S
  32   10 S
  33   14 S
  34   16 S
  35   27 S
