42
   39   40   41
C 	6.998567	5.327389	11.542961
C 	7.092352	4.252432	12.412636
C 	7.192121	5.159921	10.169635
C 	7.497160	3.911808	9.654272
C 	7.622569	2.846962	10.518091
C 	7.436953	3.004951	11.885560
C 	7.666441	3.719061	8.196029
C 	8.368143	4.632237	7.422985
C 	8.586555	4.420532	6.055516
C 	7.999283	3.317769	5.478661
C 	7.291073	2.382474	6.228279
C 	7.125758	2.606818	7.560610
C 	6.706142	1.162799	5.581147
C 	6.271183	1.200716	4.281027
C 	6.583889	-0.012639	6.263418
C 	5.947359	-1.134361	5.695347
C 	5.533157	-1.061686	4.380586
C 	9.346234	5.444301	5.244405
C 	9.591299	6.682935	5.695347
C 	9.899956	5.122003	4.032130
C 	10.683779	6.028860	3.323506
C 	10.889802	7.254855	3.797874
C 	10.368484	7.592951	4.980867
C 	5.701089	0.088790	3.680746
H 	6.804794	6.174210	11.876776
H 	7.114350	5.889830	9.598637
H 	7.832154	2.006460	10.181348
H 	7.545698	2.278201	12.456559
H 	8.702874	5.403224	7.821220
H 	6.635594	1.993821	8.061332
H 	8.079560	3.194538	4.559206
H 	6.361035	1.987502	3.792018
H 	6.929171	-0.072675	7.124308
H 	5.808835	-1.905347	6.196069
H 	9.231803	6.945196	6.512315
H 	9.750157	4.275182	3.674890
H 	5.432524	0.132711	2.793502
H 	10.525636	8.439772	5.329322
H 	11.066310	5.776078	2.512395
X 	6.996054	4.331907	13.152170
X 	5.216279	-1.658608	4.055360
X 	11.318125	7.742933	3.422616
   0    1 S
   0    2 S
   0   24 S
   1    0 S
   1    5 S
   1   39 S
   2    0 S
   2    3 S
   2   25 S
   3    2 S
   3    4 S
   3    6 S
   4    3 S
   4    5 S
   4   26 S
   5    1 S
   5    4 S
   5   27 S
   6    3 S
   6    7 S
   6   11 S
   7    6 S
   7    8 S
   7   28 S
   8    7 S
   8    9 S
   8   17 S
   9    8 S
   9   10 S
   9   30 S
  10    9 S
  10   11 S
  10   12 S
  11    6 S
  11   10 S
  11   29 S
  12   10 S
  12   13 S
  12   14 S
  13   12 S
  13   23 S
  13   31 S
  14   12 S
  14   15 S
  14   32 S
  15   14 S
  15   16 S
  15   33 S
  16   15 S
  16   23 S
  16   40 S
  17    8 S
  17   18 S
  17   19 S
  18   17 S
  18   22 S
  18   34 S
  19   17 S
  19   20 S
  19   35 S
  20   19 S
  20   21 S
  20   38 S
  21   20 S
  21   22 S
  21   41 S
  22   18 S
  22   21 S
  22   37 S
  23   13 S
  23   16 S
  23   36 S
  24    0 S
  25    2 S
  26    4 S
  27    5 S
  28    7 S
  29   11 S
  30    9 S
  31   13 S
  32   14 S
  33   15 S
  34   18 S
  35   19 S
  36   23 S
  37   22 S
  38   20 S
  39    1 S
  40   16 S
  41   21 S
