65
   53   54   55   56   57   58   59   60   61   62   63   64
C 	6.906282	4.405997	13.841597
C 	5.185733	9.956467	12.772804
O 	10.176944	12.247623	12.585693
O 	9.702590	15.638067	11.480297
O 	10.637243	16.748730	13.957847
H 	8.864785	15.517680	11.554674
Sr 	8.007734	11.064918	12.359928
Sr 	9.155020	14.552683	13.759022
H 	11.291255	16.440335	14.403811
H 	10.538236	16.294985	13.244245
H 	9.875504	15.966368	10.714281
O 	11.569283	13.626235	13.598557
O 	7.096143	15.775518	14.399126
C 	11.326363	12.544327	13.021701
O 	5.912325	7.788858	16.523828
Sr 	7.483408	7.899450	14.640996
O 	5.907222	6.502827	18.283675
Sr 	6.959081	4.733982	16.922063
O 	7.579883	2.196679	17.136407
H 	6.102031	0.281220	17.727317
O 	5.264226	0.160833	17.801694
O 	4.329573	-0.949830	15.324144
Sr 	5.811795	1.246217	15.522969
H 	3.675561	-0.641435	14.878180
H 	4.428580	-0.496085	16.037746
H 	5.091311	-0.167468	18.567711
O 	7.585266	3.295651	19.030659
C 	9.781083	5.842433	16.509187
C 	6.184473	16.620443	14.623426
O 	5.113491	16.350282	15.153430
C 	3.640453	3.254573	16.260290
C 	8.782343	-0.821543	14.658565
O 	9.853324	-0.551382	14.128561
C 	5.587453	7.542395	17.668753
C 	7.819707	2.270934	18.362737
C 	9.379362	8.256505	11.613238
C 	7.147109	13.527966	10.919254
O 	7.033348	3.403715	14.604393
O 	6.672488	5.559949	14.339684
O 	9.538508	4.679002	16.872283
O 	8.866154	6.635222	16.179764
O 	4.789871	3.551277	16.696298
O 	3.397532	2.172665	15.683434
O 	7.870673	0.023382	14.882865
C 	8.060534	11.392903	15.440394
O 	9.054491	8.010042	12.758163
O 	9.059593	9.296073	10.998316
O 	7.386933	13.602221	12.145584
O 	7.381549	12.503249	10.251332
O 	7.933468	12.395185	14.677598
O 	8.294328	10.238951	14.942307
O 	5.428308	11.119898	12.409708
O 	6.100662	9.163678	13.102227
X 	7.002579	4.326522	13.102063
X 	4.479556	9.703891	12.768388
X 	11.876287	12.041790	12.934870
X 	10.487259	6.095009	16.513603
X 	6.306292	17.324874	14.396628
X 	3.090528	3.757110	16.347121
X 	8.660523	-1.525974	14.885363
X 	5.159130	8.030473	18.044011
X 	8.136585	1.674012	18.687963
X 	9.807686	7.768427	11.237980
X 	6.830231	14.124888	10.594028
X 	7.964237	11.472378	16.179928
   0   37 S
   0   38 S
   0   53 S
   1   51 S
   1   52 S
   1   54 S
   2    6 S
   2    7 S
   2   13 S
   3    5 S
   3    7 S
   3   10 S
   4    7 S
   4    8 S
   4    9 S
   5    3 S
   5    7 S
   6    2 S
   6   46 S
   6   47 S
   6   48 S
   6   49 S
   6   50 S
   6   51 S
   6   52 S
   7    2 S
   7    3 S
   7    4 S
   7    5 S
   7    8 S
   7    9 S
   7   11 S
   7   12 S
   7   47 S
   7   49 S
   8    4 S
   8    7 S
   9    4 S
   9    7 S
  10    3 S
  11    7 S
  11   13 S
  12    7 S
  12   28 S
  13    2 S
  13   11 S
  13   55 S
  14   15 S
  14   33 S
  15   14 S
  15   38 S
  15   40 S
  15   45 S
  15   50 S
  15   52 S
  16   17 S
  16   33 S
  17   16 S
  17   18 S
  17   26 S
  17   37 S
  17   38 S
  17   39 S
  17   40 S
  17   41 S
  18   17 S
  18   22 S
  18   34 S
  19   20 S
  19   22 S
  20   19 S
  20   22 S
  20   25 S
  21   22 S
  21   23 S
  21   24 S
  22   18 S
  22   19 S
  22   20 S
  22   21 S
  22   23 S
  22   24 S
  22   37 S
  22   41 S
  22   42 S
  22   43 S
  23   21 S
  23   22 S
  24   21 S
  24   22 S
  25   20 S
  26   17 S
  26   34 S
  27   39 S
  27   40 S
  27   56 S
  28   12 S
  28   29 S
  28   57 S
  29   28 S
  30   41 S
  30   42 S
  30   58 S
  31   32 S
  31   43 S
  31   59 S
  32   31 S
  33   14 S
  33   16 S
  33   60 S
  34   18 S
  34   26 S
  34   61 S
  35   45 S
  35   46 S
  35   62 S
  36   47 S
  36   48 S
  36   63 S
  37    0 S
  37   17 S
  37   22 S
  38    0 S
  38   15 S
  38   17 S
  39   17 S
  39   27 S
  40   15 S
  40   17 S
  40   27 S
  41   17 S
  41   22 S
  41   30 S
  42   22 S
  42   30 S
  43   22 S
  43   31 S
  44   49 S
  44   50 S
  44   64 S
  45   15 S
  45   35 S
  46    6 S
  46   35 S
  47    6 S
  47    7 S
  47   36 S
  48    6 S
  48   36 S
  49    6 S
  49    7 S
  49   44 S
  50    6 S
  50   15 S
  50   44 S
  51    1 S
  51    6 S
  52    1 S
  52    6 S
  52   15 S
  53    0 S
  54    1 S
  55   13 S
  56   27 S
  57   28 S
  58   30 S
  59   31 S
  60   33 S
  61   34 S
  62   35 S
  63   36 S
  64   44 S
