22
   20   21
H 	-1.261628	2.855460	10.188413
H 	-4.441829	3.091001	7.699219
H 	-1.216999	5.178119	10.353869
H 	-4.343443	5.416179	7.798493
H 	-4.335835	9.740305	8.195587
H 	-4.380463	7.417646	8.030131
H 	-1.254019	7.179586	10.585507
H 	-1.155633	9.504764	10.684781
C 	-1.905275	3.373020	9.719988
C 	-2.866115	2.741342	8.946757
C 	-1.877752	4.760821	9.814115
C 	-2.804362	5.555362	9.128024
C 	-3.732932	4.901012	8.312693
C 	-3.782217	3.513337	8.236400
C 	-3.692187	9.222745	8.664012
C 	-2.731347	9.854422	9.437243
C 	-3.719710	7.834943	8.569885
C 	-2.793101	7.040403	9.255976
C 	-1.864531	7.694753	10.071307
C 	-1.815245	9.082428	10.147600
X 	-2.910830	1.992677	8.946110
X 	-2.686632	10.603088	9.437890
   0    8 S
   1   13 S
   2   10 S
   3   12 S
   4   14 S
   5   16 S
   6   18 S
   7   19 S
   8    0 S
   8    9 S
   8   10 S
   9    8 S
   9   13 S
   9   20 S
  10    2 S
  10    8 S
  10   11 S
  11   10 S
  11   12 S
  11   17 S
  12    3 S
  12   11 S
  12   13 S
  13    1 S
  13    9 S
  13   12 S
  14    4 S
  14   15 S
  14   16 S
  15   14 S
  15   19 S
  15   21 S
  16    5 S
  16   14 S
  16   17 S
  17   11 S
  17   16 S
  17   18 S
  18    6 S
  18   17 S
  18   19 S
  19    7 S
  19   15 S
  19   18 S
  20    9 S
  21   15 S
