22
   18   19   20   21
H 	1.571658	1.808390	13.351735
H 	2.808686	0.822377	9.657161
H 	0.709649	4.181814	10.251562
H 	0.601956	4.393003	8.200878
H 	2.413619	3.837758	4.656761
H 	3.527008	1.674124	7.842380
C 	1.622019	1.990208	12.441558
C 	0.993871	3.106291	11.927030
C 	2.330839	1.135663	11.598252
C 	2.387702	1.423775	10.229272
C 	1.837944	2.570627	9.707313
C 	1.112429	3.411185	10.584055
C 	1.989682	2.945452	8.262175
C 	1.235575	3.951045	7.682634
C 	1.393530	4.320275	6.352662
C 	2.333596	3.639157	5.561365
C 	3.127421	2.683913	6.126046
C 	2.974468	2.324473	7.470879
X 	0.584006	3.554760	12.366786
X 	2.689536	0.539144	11.877539
X 	1.010717	4.901809	6.073786
X 	3.669881	2.356549	5.724712
   0    6 S
   1    9 S
   2   11 S
   3   13 S
   4   15 S
   5   17 S
   6    0 S
   6    7 S
   6    8 S
   7    6 S
   7   11 S
   7   18 S
   8    6 S
   8    9 S
   8   19 S
   9    1 S
   9    8 S
   9   10 S
  10    9 S
  10   11 S
  10   12 S
  11    2 S
  11    7 S
  11   10 S
  12   10 S
  12   13 S
  12   17 S
  13    3 S
  13   12 S
  13   14 S
  14   13 S
  14   15 S
  14   20 S
  15    4 S
  15   14 S
  15   16 S
  16   15 S
  16   17 S
  16   21 S
  17    5 S
  17   12 S
  17   16 S
  18    7 S
  19    8 S
  20   14 S
  21   16 S
