90
   84   85   86   87   88   89
Gd 	5.678157	9.733178	7.810915
Gd 	2.854866	8.403617	5.295527
C 	-0.317295	5.236301	7.271454
C 	-0.136725	3.313330	5.837609
C 	1.273259	5.272087	5.416893
C 	0.650315	5.939949	6.512591
C 	0.880227	3.962925	5.057776
C 	-0.669999	3.903806	6.887435
C 	-0.899989	5.905010	8.369774
C 	-0.525126	7.179005	8.637145
N 	1.002084	7.214123	6.789137
C 	0.445826	7.783681	7.825857
H 	0.713085	8.648138	8.039492
C 	2.869189	5.311992	3.743200
N 	2.279547	5.921159	4.773366
C 	2.469366	4.057886	3.283164
C 	1.501515	3.382380	3.956835
H 	3.574519	5.739749	3.314619
H 	-1.296079	3.438839	7.394655
H 	7.819938	9.488657	5.066951
H 	-1.530167	5.477707	8.903206
H 	-0.904772	7.645618	9.346204
H 	-0.422124	2.462667	5.597762
H 	4.958504	12.397046	9.791823
H 	10.063190	12.659088	4.203236
H 	9.437795	10.491177	3.760238
H 	8.955147	15.674128	7.508681
H 	2.859406	3.687855	2.524301
H 	1.254519	2.530035	3.681600
H 	9.829102	14.697956	5.711788
H 	5.673617	14.448940	10.582142
N 	7.530939	10.922672	6.317305
C 	9.433012	12.231785	4.736668
C 	9.058150	10.957790	4.469297
C 	8.850319	12.900494	5.834988
C 	7.882708	12.196846	6.593851
C 	8.087197	10.353114	5.280586
N 	6.253476	12.215636	8.333076
C 	7.259764	12.864708	7.689550
C 	6.063657	14.078909	9.823279
C 	7.031509	14.754414	9.149607
C 	5.663834	12.824803	9.363242
C 	7.652796	14.173870	8.048666
H 	7.278504	15.606760	9.424843
O 	6.513181	10.118843	10.183706
O 	3.924204	7.866241	7.331744
O 	2.139007	10.018830	6.804865
O 	3.558696	10.786577	8.356668
O 	4.932224	7.803517	9.292468
O 	7.743447	8.955527	8.785248
O 	2.019842	8.017952	2.922737
O 	4.608819	10.270554	5.774698
O 	6.394016	8.117965	6.301577
O 	4.974327	7.350218	4.749775
O 	3.600799	10.333278	3.813975
O 	0.789576	9.181268	4.321194
C 	4.164488	7.286268	8.452345
C 	8.669748	14.823465	7.268833
C 	9.203022	14.232989	6.219007
C 	7.533250	9.430120	9.924198
C 	8.517970	9.143610	11.014654
C 	8.694124	10.024693	12.081519
C 	9.227686	7.960190	10.980577
C 	10.094282	7.634511	12.018608
C 	9.607378	9.718794	13.094647
C 	10.305984	8.528965	13.057948
C 	2.547893	10.898177	7.599115
C 	4.368535	10.850527	4.654098
C 	0.999773	8.706675	3.182244
C 	0.015053	8.993185	2.091788
C 	-0.161101	8.112102	1.024924
C 	-0.694663	10.176605	2.125865
C 	-1.561259	10.502284	1.087835
C 	-1.074355	8.418001	0.011796
C 	-1.772961	9.607830	0.048494
C 	5.985130	7.238618	5.507327
H 	8.203467	10.813978	12.118217
H 	9.125990	7.377963	10.262344
H 	9.744244	10.316929	13.793220
H 	10.918506	8.328259	13.728998
H 	0.329556	7.322817	0.988226
H 	-0.592967	10.758832	2.844098
H 	-1.211220	7.819866	-0.686778
H 	-2.385483	9.808536	-0.622556
X 	3.837449	6.620140	8.561060
X 	10.438445	6.968171	12.025149
X 	2.175477	11.548459	7.568465
X 	4.695574	11.516655	4.545382
X 	-1.905422	11.168624	1.081293
X 	6.357546	6.588336	5.537977
   0   31 S
   0   37 S
   0   44 S
   0   45 S
   0   47 S
   0   48 S
   0   49 S
   0   51 S
   0   52 S
   0   59 S
   1   10 S
   1   14 S
   1   45 S
   1   46 S
   1   50 S
   1   51 S
   1   53 S
   1   54 S
   1   55 S
   1   68 S
   2    5 S
   2    7 S
   2    8 S
   3    6 S
   3    7 S
   3   22 S
   4    5 S
   4    6 S
   4   14 S
   5    2 S
   5    4 S
   5   10 S
   6    3 S
   6    4 S
   6   16 S
   7    2 S
   7    3 S
   7   18 S
   8    2 S
   8    9 S
   8   20 S
   9    8 S
   9   11 S
   9   21 S
  10    1 S
  10    5 S
  10   11 S
  11    9 S
  11   10 S
  11   12 S
  12   11 S
  13   14 S
  13   15 S
  13   17 S
  14    1 S
  14    4 S
  14   13 S
  15   13 S
  15   16 S
  15   27 S
  16    6 S
  16   15 S
  16   28 S
  17   13 S
  18    7 S
  19   36 S
  20    8 S
  21    9 S
  22    3 S
  23   41 S
  24   32 S
  25   33 S
  26   57 S
  27   15 S
  28   16 S
  29   58 S
  30   39 S
  31    0 S
  31   35 S
  31   36 S
  32   24 S
  32   33 S
  32   34 S
  33   25 S
  33   32 S
  33   36 S
  34   32 S
  34   35 S
  34   58 S
  35   31 S
  35   34 S
  35   38 S
  36   19 S
  36   31 S
  36   33 S
  37    0 S
  37   38 S
  37   41 S
  38   35 S
  38   37 S
  38   42 S
  39   30 S
  39   40 S
  39   41 S
  40   39 S
  40   42 S
  40   43 S
  41   23 S
  41   37 S
  41   39 S
  42   38 S
  42   40 S
  42   57 S
  43   40 S
  44    0 S
  44   59 S
  45    0 S
  45    1 S
  45   56 S
  46    1 S
  46   66 S
  47    0 S
  47   66 S
  48    0 S
  48   56 S
  49    0 S
  49   59 S
  50    1 S
  50   68 S
  51    0 S
  51    1 S
  51   67 S
  52    0 S
  52   75 S
  53    1 S
  53   75 S
  54    1 S
  54   67 S
  55    1 S
  55   68 S
  56   45 S
  56   48 S
  56   84 S
  57   26 S
  57   42 S
  57   58 S
  58   29 S
  58   34 S
  58   57 S
  59    0 S
  59   44 S
  59   49 S
  59   60 S
  60   59 S
  60   61 S
  60   62 S
  61   60 S
  61   64 S
  61   76 S
  62   60 S
  62   63 S
  62   77 S
  63   62 S
  63   65 S
  63   85 S
  64   61 S
  64   65 S
  64   78 S
  65   63 S
  65   64 S
  65   79 S
  66   46 S
  66   47 S
  66   86 S
  67   51 S
  67   54 S
  67   87 S
  68    1 S
  68   50 S
  68   55 S
  68   69 S
  69   68 S
  69   70 S
  69   71 S
  70   69 S
  70   73 S
  70   80 S
  71   69 S
  71   72 S
  71   81 S
  72   71 S
  72   74 S
  72   88 S
  73   70 S
  73   74 S
  73   82 S
  74   72 S
  74   73 S
  74   83 S
  75   52 S
  75   53 S
  75   89 S
  76   61 S
  77   62 S
  78   64 S
  79   65 S
  80   70 S
  81   71 S
  82   73 S
  83   74 S
  84   56 S
  85   63 S
  86   66 S
  87   67 S
  88   72 S
  89   75 S
