27
   21   22   23   24   25   26
O 	2.649091	8.134089	3.334276
Mg 	1.891157	9.838598	4.026956
O 	1.063202	6.601086	3.728494
Mg 	-0.267411	7.243236	5.181630
O 	0.903090	8.897527	5.727360
O 	2.883546	9.822209	5.896903
O 	-1.764219	7.753224	6.530720
O 	0.739777	6.162283	6.634767
Mg 	-2.107658	4.413251	6.336305
O 	-1.501172	5.635572	4.635901
O 	-2.492153	5.934440	7.623837
O 	-0.255192	4.193735	7.028985
O 	-1.798297	3.470171	4.466358
C 	-0.829991	9.319960	2.924098
C 	2.069173	7.045350	3.113124
C 	1.892752	9.285347	6.438694
C 	-2.417600	7.165989	7.439163
C 	0.613141	5.069894	7.250137
C 	-1.578719	4.575466	3.924567
O 	0.324321	9.755660	2.739424
O 	-1.197545	8.522053	3.832541
X 	-1.368673	9.553325	2.457341
X 	2.339829	6.633094	2.548065
X 	1.864232	9.244229	7.187023
X 	-2.799938	7.611473	7.905920
X 	1.087031	4.933374	7.815196
X 	-1.547884	4.614879	3.176238
   0    1 S
   0   14 S
   1    0 S
   1    4 S
   1    5 S
   1   19 S
   2    3 S
   2   14 S
   3    2 S
   3    4 S
   3    6 S
   3    7 S
   3    9 S
   3   20 S
   4    1 S
   4    3 S
   4   15 S
   5    1 S
   5   15 S
   6    3 S
   6   16 S
   7    3 S
   7   17 S
   8    9 S
   8   10 S
   8   11 S
   8   12 S
   9    3 S
   9    8 S
   9   18 S
  10    8 S
  10   16 S
  11    8 S
  11   17 S
  12    8 S
  12   18 S
  13   19 S
  13   20 S
  13   21 S
  14    0 S
  14    2 S
  14   22 S
  15    4 S
  15    5 S
  15   23 S
  16    6 S
  16   10 S
  16   24 S
  17    7 S
  17   11 S
  17   25 S
  18    9 S
  18   12 S
  18   26 S
  19    1 S
  19   13 S
  20    3 S
  20   13 S
  21   13 S
  22   14 S
  23   15 S
  24   16 S
  25   17 S
  26   18 S
