26
   20   21   22   23   24   25
Zn 	4.002326	9.404661	12.666899
Zn 	2.409459	13.380381	13.082232
C 	5.817858	8.554290	14.078337
O 	6.193690	8.160123	12.976275
C 	0.593926	14.230752	11.670794
O 	0.218095	14.624919	12.772856
O 	3.617038	8.247402	11.121050
O 	2.237132	10.178084	13.048243
O 	1.417843	11.981179	14.050013
C 	3.189225	7.125376	11.526599
O 	3.016116	6.868572	12.714921
O 	4.971680	9.092736	14.415651
C 	3.222560	15.659666	14.222533
O 	3.395668	15.916470	13.034210
O 	2.794747	14.537640	14.628081
O 	4.174653	12.606958	12.700888
O 	4.993941	10.803863	11.699118
O 	1.440105	13.692306	11.333480
C 	1.577427	10.736374	13.965041
C 	4.834358	12.048668	11.784090
X 	6.276267	8.478881	14.667128
X 	0.135517	14.306161	11.082003
X 	3.021162	6.623340	10.995359
X 	3.390623	16.161702	14.753772
X 	1.236414	10.312320	14.481170
X 	5.175370	12.472722	11.267961
   0    6 S
   0    7 S
   0   11 S
   0   16 S
   1    8 S
   1   14 S
   1   15 S
   1   17 S
   2    3 S
   2   11 S
   2   20 S
   3    2 S
   4    5 S
   4   17 S
   4   21 S
   5    4 S
   6    0 S
   6    9 S
   7    0 S
   7   18 S
   8    1 S
   8   18 S
   9    6 S
   9   10 S
   9   22 S
  10    9 S
  11    0 S
  11    2 S
  12   13 S
  12   14 S
  12   23 S
  13   12 S
  14    1 S
  14   12 S
  15    1 S
  15   19 S
  16    0 S
  16   19 S
  17    1 S
  17    4 S
  18    7 S
  18    8 S
  18   24 S
  19   15 S
  19   16 S
  19   25 S
  20    2 S
  21    4 S
  22    9 S
  23   12 S
  24   18 S
  25   19 S
