118
   114   115   116   117
C 	9.613983	5.565257	11.326863
C 	9.688667	4.009614	11.232051
C 	8.666138	2.509744	9.692938
C 	8.890844	1.352473	10.460914
C 	8.288180	0.189227	10.097469
C 	7.494803	0.139430	8.943924
C 	7.294454	1.268815	8.131702
C 	7.934176	2.382265	8.485666
C 	8.381006	-1.069629	10.957097
C 	6.451743	1.266823	6.895986
C 	-2.843194	-3.206895	10.290253
C 	-1.531198	-2.796571	9.648692
C 	0.787858	-3.238764	9.825674
C 	1.022597	-2.197022	9.000811
C 	2.321801	-1.844462	8.589959
C 	3.348054	-2.740799	9.082981
C 	3.109522	-3.826363	9.907845
C 	1.809140	-4.033517	10.264970
C 	2.576200	-0.709102	7.588113
C 	4.219659	-4.650993	10.343980
C 	4.320294	-8.445486	2.310250
C 	4.112726	-7.230452	1.870955
C 	4.924520	-6.150864	2.465110
C 	5.841012	-6.473545	3.473276
C 	5.972842	-7.786181	3.852524
C 	5.174911	-8.686501	3.264690
C 	4.759701	-4.658961	2.016333
C 	6.874194	-8.176585	5.025031
C 	15.781128	-2.424094	1.434820
C 	14.808822	-3.340349	2.180674
C 	12.380388	-3.272626	2.256523
C 	11.291550	-2.754742	1.804587
C 	10.093502	-2.981814	2.427185
C 	10.067751	-3.876160	3.501720
C 	11.242387	-4.419937	3.978940
C 	12.435037	-4.095264	3.359502
C 	8.824303	-2.340436	1.870955
C 	11.215216	-5.405908	5.243099
C 	6.739654	-1.187149	8.510949
C 	5.508609	-1.456050	9.022934
C 	4.759860	-2.467915	8.495147
C 	5.189481	-3.288561	7.439575
C 	4.405839	-4.250629	6.801174
C 	4.846556	-4.969691	5.783527
C 	6.171846	-4.728676	5.224136
C 	6.649012	-5.451721	4.067431
C 	7.908667	-5.152942	3.618655
C 	8.752697	-4.129126	4.171724
C 	8.302025	-3.459861	5.266275
C 	9.044125	-2.434053	5.865697
C 	8.588091	-1.705032	6.902307
C 	7.259150	-1.950031	7.442735
C 	6.501360	-2.922059	6.940232
C 	6.993558	-3.760632	5.802489
C 	1.986604	-10.734134	0.499343
C 	2.517608	-9.268125	0.764816
O 	9.249951	3.688925	9.914166
O 	13.573936	-2.969863	1.605798
O 	3.588457	-9.529058	1.719256
O 	-0.493397	-3.645104	10.246007
H 	9.093800	3.601283	11.895735
H 	8.701327	5.848101	11.241532
H 	10.138952	5.955661	10.625255
H 	9.958202	5.850093	12.177010
H 	9.443541	1.382351	11.206768
H 	7.898312	3.113277	7.913634
H 	7.520533	-1.262839	11.333184
H 	9.015548	-0.928207	11.665026
H 	8.666432	-1.808609	10.413508
H 	6.478799	2.137266	6.491456
H 	5.545572	1.049710	7.126695
H 	6.790846	0.615485	6.276549
H 	-1.346150	-1.854422	9.844637
H 	-3.486658	-2.501776	10.182799
H 	-2.703517	-3.372219	11.225730
H 	-3.168503	-4.005630	9.869920
H 	0.302200	-1.693081	8.697413
H 	1.609512	-4.742619	10.833841
H 	3.520917	-0.577639	7.486981
H 	2.171963	0.099593	7.913634
H 	2.190545	-0.940158	6.741127
H 	3.950035	-5.178836	11.099314
H 	4.957553	-4.089289	10.590491
H 	4.487103	-5.230624	9.626569
H 	1.819388	-8.714388	1.172507
H 	3.482572	-7.055168	1.210432
H 	5.236837	-9.564912	3.564928
H 	4.971998	-4.079329	2.752706
H 	3.852259	-4.507579	1.741379
H 	5.352219	-4.477701	1.286282
H 	6.764658	-9.112760	5.214655
H 	6.632879	-7.662685	5.799329
H 	7.790141	-8.003293	4.797483
H 	14.809893	-3.117261	3.135114
H 	16.681710	-2.631247	1.697133
H 	15.586681	-1.507838	1.649727
H 	15.684200	-2.555556	0.489862
H 	11.317802	-2.218932	1.042931
H 	13.245459	-4.423921	3.672381
H 	8.282705	-2.021738	2.597846
H 	8.332061	-2.991774	1.368452
H 	9.059970	-1.605439	1.302084
H 	11.827697	-6.130945	5.097720
H 	10.326675	-5.756475	5.356873
H 	11.472317	-4.923878	6.033198
H 	5.179591	-0.952109	9.730863
H 	3.538932	-4.392051	7.107733
H 	4.306778	-5.634972	5.423241
H 	8.242790	-5.646923	2.904405
H 	9.891622	-2.246818	5.533855
H 	9.125245	-1.043735	7.275234
H 	1.808699	-10.843686	-0.439295
H 	1.178973	-10.877547	0.995525
H 	2.649363	-11.369537	0.774297
X 	10.384990	3.741023	11.306166
X 	-1.630679	-2.887724	8.910929
X 	14.994283	-4.061375	2.089980
X 	2.765446	-8.959500	0.127770
   0    1 S
   0   61 S
   0   62 S
   0   63 S
   1    0 S
   1   56 S
   1   60 S
   1  114 S
   2    3 S
   2    7 S
   2   56 S
   3    2 S
   3    4 S
   3   64 S
   4    3 S
   4    5 S
   4    8 S
   5    4 S
   5    6 S
   5   38 S
   6    5 S
   6    7 S
   6    9 S
   7    2 S
   7    6 S
   7   65 S
   8    4 S
   8   66 S
   8   67 S
   8   68 S
   9    6 S
   9   69 S
   9   70 S
   9   71 S
  10   11 S
  10   73 S
  10   74 S
  10   75 S
  11   10 S
  11   59 S
  11   72 S
  11  115 S
  12   13 S
  12   17 S
  12   59 S
  13   12 S
  13   14 S
  13   76 S
  14   13 S
  14   15 S
  14   18 S
  15   14 S
  15   16 S
  15   40 S
  16   15 S
  16   17 S
  16   19 S
  17   12 S
  17   16 S
  17   77 S
  18   14 S
  18   78 S
  18   79 S
  18   80 S
  19   16 S
  19   81 S
  19   82 S
  19   83 S
  20   21 S
  20   25 S
  20   58 S
  21   20 S
  21   22 S
  21   85 S
  22   21 S
  22   23 S
  22   26 S
  23   22 S
  23   24 S
  23   45 S
  24   23 S
  24   25 S
  24   27 S
  25   20 S
  25   24 S
  25   86 S
  26   22 S
  26   87 S
  26   88 S
  26   89 S
  27   24 S
  27   90 S
  27   91 S
  27   92 S
  28   29 S
  28   94 S
  28   95 S
  28   96 S
  29   28 S
  29   57 S
  29   93 S
  29  116 S
  30   31 S
  30   35 S
  30   57 S
  31   30 S
  31   32 S
  31   97 S
  32   31 S
  32   33 S
  32   36 S
  33   32 S
  33   34 S
  33   47 S
  34   33 S
  34   35 S
  34   37 S
  35   30 S
  35   34 S
  35   98 S
  36   32 S
  36   99 S
  36  100 S
  36  101 S
  37   34 S
  37  102 S
  37  103 S
  37  104 S
  38    5 S
  38   39 S
  38   51 S
  39   38 S
  39   40 S
  39  105 S
  40   15 S
  40   39 S
  40   41 S
  41   40 S
  41   42 S
  41   52 S
  42   41 S
  42   43 S
  42  106 S
  43   42 S
  43   44 S
  43  107 S
  44   43 S
  44   45 S
  44   53 S
  45   23 S
  45   44 S
  45   46 S
  46   45 S
  46   47 S
  46  108 S
  47   33 S
  47   46 S
  47   48 S
  48   47 S
  48   49 S
  48   53 S
  49   48 S
  49   50 S
  49  109 S
  50   49 S
  50   51 S
  50  110 S
  51   38 S
  51   50 S
  51   52 S
  52   41 S
  52   51 S
  52   53 S
  53   44 S
  53   48 S
  53   52 S
  54   55 S
  54  111 S
  54  112 S
  54  113 S
  55   54 S
  55   58 S
  55   84 S
  55  117 S
  56    1 S
  56    2 S
  57   29 S
  57   30 S
  58   20 S
  58   55 S
  59   11 S
  59   12 S
  60    1 S
  61    0 S
  62    0 S
  63    0 S
  64    3 S
  65    7 S
  66    8 S
  67    8 S
  68    8 S
  69    9 S
  70    9 S
  71    9 S
  72   11 S
  73   10 S
  74   10 S
  75   10 S
  76   13 S
  77   17 S
  78   18 S
  79   18 S
  80   18 S
  81   19 S
  82   19 S
  83   19 S
  84   55 S
  85   21 S
  86   25 S
  87   26 S
  88   26 S
  89   26 S
  90   27 S
  91   27 S
  92   27 S
  93   29 S
  94   28 S
  95   28 S
  96   28 S
  97   31 S
  98   35 S
  99   36 S
 100   36 S
 101   36 S
 102   37 S
 103   37 S
 104   37 S
 105   39 S
 106   42 S
 107   43 S
 108   46 S
 109   49 S
 110   50 S
 111   54 S
 112   54 S
 113   54 S
 114    1 S
 115   11 S
 116   29 S
 117   55 S
