46
   38   39   40   41   42   43   44   45
C 	3.914147	2.625357	23.463089
C 	3.637964	3.214916	22.237884
C 	4.190705	4.437104	21.890876
C 	5.053392	5.064602	22.793097
C 	5.347197	4.475698	24.020972
C 	4.768163	3.250308	24.349295
O 	0.750204	0.348922	25.471733
Tb 	2.094917	-1.172687	24.402681
O 	0.333346	-1.375785	22.919888
O 	0.161848	1.296288	27.364262
Eu 	1.591761	0.482827	28.983188
O 	2.477049	0.780012	22.993027
C 	0.412318	-2.010380	29.575771
O 	3.532944	0.771180	24.918388
O 	2.936473	-1.038782	27.914136
O 	3.524830	-1.986148	26.021607
C 	3.274359	1.320520	23.810098
C 	4.108634	1.590911	30.921095
O 	4.025791	2.809469	30.609856
C 	0.137373	1.210031	26.124375
C 	3.549305	-1.899891	27.261494
O 	3.353331	0.685924	30.465981
C 	-0.227470	-3.315218	29.922780
C 	-1.660519	-5.165559	29.364897
C 	-1.081485	-3.940168	29.036574
C 	0.048714	-3.904776	31.147985
C 	-0.504028	-5.126964	31.494993
C 	-1.366714	-5.754463	30.592772
C 	-0.421956	-2.280771	22.464774
O 	-0.339114	-3.499329	22.776013
O 	1.209629	-1.469872	30.392842
O 	0.153733	-1.461040	28.467481
H 	3.071430	2.783222	21.639962
H 	5.434541	5.883630	22.571545
H 	4.958161	2.853332	25.168768
H 	-1.271484	-3.543192	28.217101
H 	0.615248	-3.473082	31.745907
H 	-1.747863	-6.573490	30.814324
X 	3.998317	4.773081	21.248531
X 	5.800366	4.828440	24.503374
X 	4.613095	1.381677	31.435139
X 	-0.287091	1.710935	25.761849
X 	3.973769	-2.400795	27.624020
X 	-2.113688	-5.518300	28.882495
X 	-0.311640	-5.462942	32.137338
X 	-0.926417	-2.071538	21.950730
   0    1 S
   0    5 S
   0   16 S
   1    0 S
   1    2 S
   1   32 S
   2    1 S
   2    3 S
   2   38 S
   3    2 S
   3    4 S
   3   33 S
   4    3 S
   4    5 S
   4   39 S
   5    0 S
   5    4 S
   5   34 S
   6    7 S
   6   19 S
   7    6 S
   7    8 S
   7   11 S
   7   13 S
   7   15 S
   7   16 S
   8    7 S
   8   28 S
   9   10 S
   9   19 S
  10    9 S
  10   12 S
  10   14 S
  10   21 S
  10   30 S
  10   31 S
  11    7 S
  11   16 S
  12   10 S
  12   22 S
  12   30 S
  12   31 S
  13    7 S
  13   16 S
  14   10 S
  14   20 S
  15    7 S
  15   20 S
  16    0 S
  16    7 S
  16   11 S
  16   13 S
  17   18 S
  17   21 S
  17   40 S
  18   17 S
  19    6 S
  19    9 S
  19   41 S
  20   14 S
  20   15 S
  20   42 S
  21   10 S
  21   17 S
  22   12 S
  22   24 S
  22   25 S
  23   24 S
  23   27 S
  23   43 S
  24   22 S
  24   23 S
  24   35 S
  25   22 S
  25   26 S
  25   36 S
  26   25 S
  26   27 S
  26   44 S
  27   23 S
  27   26 S
  27   37 S
  28    8 S
  28   29 S
  28   45 S
  29   28 S
  30   10 S
  30   12 S
  31   10 S
  31   12 S
  32    1 S
  33    3 S
  34    5 S
  35   24 S
  36   25 S
  37   27 S
  38    2 S
  39    4 S
  40   17 S
  41   19 S
  42   20 S
  43   23 S
  44   26 S
  45   28 S
