36
   28   29   30   31   32   33   34   35
Cd 	17.746332	6.093349	13.639481
Cd 	13.730526	8.853465	12.212440
C 	11.106549	6.994788	11.309000
Cd 	5.401742	12.121049	10.977411
Cd 	9.417548	9.360933	12.404452
C 	5.979780	10.714401	8.606065
O 	4.790001	10.864916	8.662684
O 	16.833115	7.282315	11.897344
O 	14.937301	7.543827	10.806815
O 	4.212042	13.834170	11.833340
O 	10.080561	7.709102	11.109603
O 	12.086423	7.374544	11.875189
C 	7.115506	11.216494	13.657451
O 	6.705493	11.029247	9.553816
C 	19.287811	3.848814	13.812538
O 	18.903488	4.268257	14.947377
O 	6.314958	10.932083	12.719548
O 	8.210773	10.670571	13.810076
C 	12.041524	11.219610	13.307892
O 	18.936032	4.380228	12.783552
O 	13.067513	10.505296	13.507288
O 	11.061650	10.839854	12.741703
C 	16.032568	6.997904	10.959440
O 	16.442580	7.185151	15.063076
C 	3.860263	14.365584	10.804354
O 	4.244585	13.946141	9.669515
C 	17.168293	7.499997	16.010826
O 	18.358073	7.349482	15.954207
X 	11.107860	6.310602	11.001774
X 	6.315492	10.451092	7.989246
X 	6.923060	11.738581	14.160334
X 	19.756428	3.264115	13.780530
X 	12.040214	11.903796	13.615118
X 	16.225014	6.475817	10.456558
X 	3.391646	14.950283	10.836361
X 	16.832582	7.763306	16.627646
   0    7 S
   0   19 S
   0   23 S
   1    8 S
   1   11 S
   1   20 S
   2   10 S
   2   11 S
   2   28 S
   3    9 S
   3   13 S
   3   16 S
   4   10 S
   4   17 S
   4   21 S
   5    6 S
   5   13 S
   5   29 S
   6    5 S
   7    0 S
   7   22 S
   8    1 S
   8   22 S
   9    3 S
   9   24 S
  10    2 S
  10    4 S
  11    1 S
  11    2 S
  12   16 S
  12   17 S
  12   30 S
  13    3 S
  13    5 S
  14   15 S
  14   19 S
  14   31 S
  15   14 S
  16    3 S
  16   12 S
  17    4 S
  17   12 S
  18   20 S
  18   21 S
  18   32 S
  19    0 S
  19   14 S
  20    1 S
  20   18 S
  21    4 S
  21   18 S
  22    7 S
  22    8 S
  22   33 S
  23    0 S
  23   26 S
  24    9 S
  24   25 S
  24   34 S
  25   24 S
  26   23 S
  26   27 S
  26   35 S
  27   26 S
  28    2 S
  29    5 S
  30   12 S
  31   14 S
  32   18 S
  33   22 S
  34   24 S
  35   26 S
