9
   7   8
Cd 	17.333790	12.526558	3.838758
C 	17.998768	15.141397	4.209488
C 	15.922954	11.052207	2.013662
O 	16.459970	10.459475	2.995876
O 	16.041186	12.306883	1.863499
O 	17.402063	14.807562	3.190349
O 	18.307404	14.308586	5.103082
X 	18.235841	15.846804	4.302744
X 	15.551896	10.654143	1.497560
   0    3 S
   0    4 S
   0    5 S
   0    6 S
   1    5 S
   1    6 S
   1    7 S
   2    3 S
   2    4 S
   2    8 S
   3    0 S
   3    2 S
   4    0 S
   4    2 S
   5    0 S
   5    1 S
   6    0 S
   6    1 S
   7    1 S
   8    2 S
