64
   52   53   54   55   56   57   58   59   60   61   62   63
Zn 	10.399003	14.812511	24.281328
Zn 	10.168666	14.422485	27.440130
O 	11.027178	13.846237	25.833127
H 	11.860297	13.820192	25.723025
C 	9.226484	12.226556	22.442531
O 	9.607394	12.885823	23.428265
Zn 	14.248634	9.994815	27.440130
Zn 	14.018297	9.604789	24.281328
O 	13.390122	10.571063	25.833127
H 	12.557003	10.597108	25.723025
Zn 	9.604789	10.399003	24.281328
O 	10.571063	11.027178	25.833127
Zn 	9.994815	10.168666	27.440130
H 	10.597108	11.860297	25.723025
Zn 	14.812511	14.018297	24.281328
O 	13.846237	13.390122	25.833127
H 	13.820192	12.557003	25.723025
Zn 	14.422485	14.248634	27.440130
C 	15.190816	12.190744	22.442531
O 	14.809906	11.531477	23.428265
O 	8.535963	15.361737	24.691237
O 	8.604657	15.501730	26.922254
O 	15.881337	9.055563	24.691237
O 	15.812643	8.915570	26.922254
O 	9.055563	8.535963	24.691237
O 	8.915570	8.604657	26.922254
C 	12.102842	15.399177	29.077937
O 	15.361737	15.881337	24.691237
O 	15.501730	15.812643	26.922254
O 	13.458816	9.091375	22.480045
C 	8.041431	15.636839	25.799883
O 	10.958484	15.325925	22.480045
C 	12.314458	9.018123	29.077937
O 	9.091375	10.958484	22.480045
C 	16.375869	8.780461	25.799883
O 	15.325925	13.458816	22.480045
C 	9.018123	12.102842	29.077937
O 	10.846165	15.283602	29.046828
O 	12.793037	15.187561	28.064144
C 	8.780461	8.041431	25.799883
O 	13.571135	9.133698	29.046828
O 	11.624263	9.229739	28.064144
C 	15.399177	12.314458	29.077937
O 	9.133698	10.846165	29.046828
O 	9.229739	12.793037	28.064144
C 	15.636839	16.375869	25.799883
O 	15.283602	13.571135	29.046828
O 	15.187561	11.624263	28.064144
C 	12.190744	9.226484	22.442531
O 	11.531477	9.607394	23.428265
C 	12.226556	15.190816	22.442531
O 	12.885823	14.809906	23.428265
X 	9.035751	12.557872	21.797279
X 	15.381549	11.859428	21.797279
X 	12.408588	15.612049	29.728864
X 	7.341868	15.907217	25.802630
X 	12.008712	8.805251	29.728864
X 	17.075432	8.510083	25.802630
X 	8.805251	12.408588	29.728864
X 	8.510083	7.341868	25.802630
X 	15.612049	12.008712	29.728864
X 	15.907217	17.075432	25.802630
X 	11.859428	9.035751	21.797279
X 	12.557872	15.381549	21.797279
   0    2 S
   0   20 S
   0   31 S
   1    2 S
   1   21 S
   1   37 S
   1   44 S
   2    0 S
   2    1 S
   2    3 S
   3    2 S
   4    5 S
   4   33 S
   4   52 S
   5    4 S
   6    8 S
   6   23 S
   6   40 S
   6   47 S
   7    8 S
   7   22 S
   7   29 S
   8    6 S
   8    7 S
   8    9 S
   9    8 S
  10   11 S
  10   24 S
  10   33 S
  11   10 S
  11   12 S
  11   13 S
  12   11 S
  12   25 S
  12   41 S
  12   43 S
  13   11 S
  14   15 S
  14   27 S
  14   35 S
  15   14 S
  15   16 S
  15   17 S
  16   15 S
  17   15 S
  17   28 S
  17   38 S
  17   46 S
  18   19 S
  18   35 S
  18   53 S
  19   18 S
  20    0 S
  20   30 S
  21    1 S
  21   30 S
  22    7 S
  22   34 S
  23    6 S
  23   34 S
  24   10 S
  24   39 S
  25   12 S
  25   39 S
  26   37 S
  26   38 S
  26   54 S
  27   14 S
  27   45 S
  28   17 S
  28   45 S
  29    7 S
  29   48 S
  30   20 S
  30   21 S
  30   55 S
  31    0 S
  31   50 S
  32   40 S
  32   41 S
  32   56 S
  33    4 S
  33   10 S
  34   22 S
  34   23 S
  34   57 S
  35   14 S
  35   18 S
  36   43 S
  36   44 S
  36   58 S
  37    1 S
  37   26 S
  38   17 S
  38   26 S
  39   24 S
  39   25 S
  39   59 S
  40    6 S
  40   32 S
  41   12 S
  41   32 S
  42   46 S
  42   47 S
  42   60 S
  43   12 S
  43   36 S
  44    1 S
  44   36 S
  45   27 S
  45   28 S
  45   61 S
  46   17 S
  46   42 S
  47    6 S
  47   42 S
  48   29 S
  48   49 S
  48   62 S
  49   48 S
  50   31 S
  50   51 S
  50   63 S
  51   50 S
  52    4 S
  53   18 S
  54   26 S
  55   30 S
  56   32 S
  57   34 S
  58   36 S
  59   39 S
  60   42 S
  61   45 S
  62   48 S
  63   50 S
