22
   19   20   21
H 	6.309430	15.928219	27.800021
C 	5.897592	16.183786	26.983862
C 	6.643133	16.177275	25.805373
C 	4.557896	16.558185	26.980507
H 	6.568254	16.569580	23.807676
C 	6.058746	16.577719	24.609194
C 	4.743467	16.987930	24.583880
C 	3.997926	16.970023	25.779754
C 	3.760264	16.480050	28.237684
H 	3.087975	17.245125	25.762674
C 	4.308840	16.825148	29.457957
C 	3.569809	16.735617	30.631262
C 	2.435219	16.017749	28.205355
H 	2.042914	15.771948	27.376082
C 	1.701072	15.913568	29.363105
H 	5.207396	17.127922	29.495776
C 	2.251275	16.270061	30.580023
H 	1.736884	16.201692	31.377577
H 	0.807399	15.594516	29.324981
X 	7.342696	15.906897	25.802627
X 	4.412152	17.178662	23.938628
X 	3.875555	16.948489	31.282188
   0    1 S
   1    0 S
   1    2 S
   1    3 S
   2    1 S
   2    5 S
   2   19 S
   3    1 S
   3    7 S
   3    8 S
   4    5 S
   5    2 S
   5    4 S
   5    6 S
   6    5 S
   6    7 S
   6   20 S
   7    3 S
   7    6 S
   7    9 S
   8    3 S
   8   10 S
   8   12 S
   9    7 S
  10    8 S
  10   11 S
  10   15 S
  11   10 S
  11   16 S
  11   21 S
  12    8 S
  12   13 S
  12   14 S
  13   12 S
  14   12 S
  14   16 S
  14   18 S
  15   10 S
  16   11 S
  16   14 S
  16   17 S
  17   16 S
  18   14 S
  19    2 S
  20    6 S
  21   11 S
