18
   14   15   16   17
Zn 	4.607653	10.861985	3.411998
Zn 	2.117454	12.984238	2.886496
O 	3.603281	14.170596	3.369698
O 	4.486211	12.509333	4.594312
O 	0.673510	13.580509	1.660585
O 	4.132618	9.840799	1.700030
O 	3.094991	11.762577	1.647091
C 	4.407284	13.719656	4.219843
C 	1.995275	10.818179	4.862383
O 	1.472252	11.788087	4.275118
O 	2.971865	10.125020	4.438608
C 	0.102079	14.404827	2.426650
O 	0.516709	14.648850	3.560955
C 	3.348610	10.645792	1.129374
X 	4.864495	14.210465	4.555351
X 	1.703361	10.632491	5.527820
X 	-0.515377	14.748928	2.175964
X 	3.057970	10.463146	0.462539
   0    3 S
   0    5 S
   0   10 S
   1    2 S
   1    4 S
   1    6 S
   1    9 S
   2    1 S
   2    7 S
   3    0 S
   3    7 S
   4    1 S
   4   11 S
   5    0 S
   5   13 S
   6    1 S
   6   13 S
   7    2 S
   7    3 S
   7   14 S
   8    9 S
   8   10 S
   8   15 S
   9    1 S
   9    8 S
  10    0 S
  10    8 S
  11    4 S
  11   12 S
  11   16 S
  12   11 S
  13    5 S
  13    6 S
  13   17 S
  14    7 S
  15    8 S
  16   11 S
  17   13 S
