62
   50   51   52   53   54   55   56   57   58   59   60   61
C 	47.202674	27.252477	16.409151
C 	49.257412	30.811387	16.409151
O 	47.360298	27.343481	19.334761
O 	51.154526	27.343481	19.334761
O 	49.257412	26.618698	20.752750
O 	49.257412	28.438780	18.178766
Hf 	49.257412	26.430840	18.689426
O 	47.681175	29.348821	20.752750
Hf 	47.518485	29.442750	18.689426
O 	49.257412	28.438780	22.432735
Hf 	47.518485	27.434810	21.529082
O 	49.257412	30.629379	19.334761
Hf 	50.996339	27.434810	21.529082
Hf 	50.996339	29.442750	18.689426
O 	50.833649	29.348821	20.752750
Hf 	49.257412	30.446720	21.529082
C 	53.648358	28.601287	20.224164
C 	44.866465	28.601287	20.224164
C 	49.257412	25.741159	23.579537
C 	47.202674	24.554855	20.224164
O 	47.923803	24.739464	19.181930
O 	50.591021	26.331385	16.930613
C 	51.312150	27.252477	16.409151
O 	50.636057	32.112095	21.073349
O 	51.794309	28.566023	23.251124
O 	51.749274	25.408181	21.073349
O 	47.878767	30.572176	23.251124
O 	46.720514	31.443378	19.181930
O 	46.765550	28.337538	16.930613
O 	50.415665	30.647417	16.930613
O 	53.127919	29.133499	19.181930
C 	46.921203	29.787591	23.579537
O 	48.099159	26.178141	23.251124
O 	45.386905	27.796064	21.073349
C 	51.593621	32.160198	20.224164
O 	47.878767	32.112095	21.073349
O 	50.591021	24.739464	19.181930
O 	47.923803	26.331385	16.930613
O 	50.636057	30.572176	23.251124
O 	51.794309	31.443378	19.181930
O 	46.720514	28.566023	23.251124
C 	51.593621	29.787591	23.579537
O 	46.765550	25.408181	21.073349
O 	45.386905	29.133499	19.181930
O 	51.749274	28.337538	16.930613
O 	50.415665	26.178141	23.251124
O 	53.127919	27.796064	21.073349
O 	48.099159	30.647417	16.930613
C 	46.921203	32.160198	20.224164
C 	51.312150	24.554855	20.224164
X 	46.864849	27.057433	15.768580
X 	49.257412	31.201474	15.768580
X 	54.396600	28.643198	20.253799
X 	44.118224	28.643198	20.253799
X 	49.257412	25.267251	24.160839
X 	46.864849	23.885904	20.253799
X 	51.649975	27.057433	15.768580
X 	46.510787	30.024545	24.160839
X 	52.004037	32.787239	20.253799
X 	52.004037	30.024545	24.160839
X 	46.510787	32.787239	20.253799
X 	51.649975	23.885904	20.253799
   0   28 S
   0   37 S
   0   50 S
   1   29 S
   1   47 S
   1   51 S
   2    6 S
   2    8 S
   2   10 S
   3    6 S
   3   12 S
   3   13 S
   4    6 S
   4   10 S
   4   12 S
   5    6 S
   5    8 S
   5   13 S
   6    2 S
   6    3 S
   6    4 S
   6    5 S
   6   20 S
   6   21 S
   6   36 S
   6   37 S
   7    8 S
   7   10 S
   7   15 S
   8    2 S
   8    5 S
   8    7 S
   8   11 S
   8   27 S
   8   28 S
   8   43 S
   8   47 S
   9   10 S
   9   12 S
   9   15 S
  10    2 S
  10    4 S
  10    7 S
  10    9 S
  10   32 S
  10   33 S
  10   40 S
  10   42 S
  11    8 S
  11   13 S
  11   15 S
  12    3 S
  12    4 S
  12    9 S
  12   14 S
  12   24 S
  12   25 S
  12   45 S
  12   46 S
  13    3 S
  13    5 S
  13   11 S
  13   14 S
  13   29 S
  13   30 S
  13   39 S
  13   44 S
  14   12 S
  14   13 S
  14   15 S
  15    7 S
  15    9 S
  15   11 S
  15   14 S
  15   23 S
  15   26 S
  15   35 S
  15   38 S
  16   30 S
  16   46 S
  16   52 S
  17   33 S
  17   43 S
  17   53 S
  18   32 S
  18   45 S
  18   54 S
  19   20 S
  19   42 S
  19   55 S
  20    6 S
  20   19 S
  21    6 S
  21   22 S
  22   21 S
  22   44 S
  22   56 S
  23   15 S
  23   34 S
  24   12 S
  24   41 S
  25   12 S
  25   49 S
  26   15 S
  26   31 S
  27    8 S
  27   48 S
  28    0 S
  28    8 S
  29    1 S
  29   13 S
  30   13 S
  30   16 S
  31   26 S
  31   40 S
  31   57 S
  32   10 S
  32   18 S
  33   10 S
  33   17 S
  34   23 S
  34   39 S
  34   58 S
  35   15 S
  35   48 S
  36    6 S
  36   49 S
  37    0 S
  37    6 S
  38   15 S
  38   41 S
  39   13 S
  39   34 S
  40   10 S
  40   31 S
  41   24 S
  41   38 S
  41   59 S
  42   10 S
  42   19 S
  43    8 S
  43   17 S
  44   13 S
  44   22 S
  45   12 S
  45   18 S
  46   12 S
  46   16 S
  47    1 S
  47    8 S
  48   27 S
  48   35 S
  48   60 S
  49   25 S
  49   36 S
  49   61 S
  50    0 S
  51    1 S
  52   16 S
  53   17 S
  54   18 S
  55   19 S
  56   22 S
  57   31 S
  58   34 S
  59   41 S
  60   48 S
  61   49 S
