44
   38   39   40   41   42   43
N 	13.630925	5.565403	10.892680
N 	12.080837	3.620261	13.543129
N 	15.743115	7.270530	8.462241
N 	15.707092	8.600599	8.308677
H 	7.458870	3.760026	16.847700
H 	10.777839	2.029240	17.971372
H 	11.773820	2.596906	16.006053
H 	8.394304	4.463213	14.886811
H 	15.845485	2.685465	10.200167
H 	12.492035	10.171269	9.529803
H 	16.215183	4.703755	9.116363
H 	16.217184	11.401583	9.237442
H 	15.464309	13.557223	9.374763
H 	11.833549	12.329100	9.673031
C 	10.863400	4.055467	13.975765
N 	10.332065	5.014902	13.181369
C 	14.821689	9.120198	9.162137
N 	14.272169	8.118271	9.937337
C 	14.648174	5.666847	10.027408
C 	10.208210	3.622057	15.190985
C 	12.255090	4.396164	12.417980
N 	11.271988	5.211811	12.192065
C 	13.434158	4.385018	11.542372
C 	14.885555	7.007328	9.432349
C 	14.444711	10.515326	9.297981
C 	8.348990	3.544619	16.686753
N 	9.013299	2.840891	17.655385
C 	10.897539	2.863880	16.167000
C 	10.287209	2.515604	17.349735
C 	8.898005	3.961690	15.486299
C 	15.296154	3.414972	10.377356
C 	13.131371	10.843955	9.482553
C 	15.519405	4.604395	9.726187
C 	14.230016	3.279868	11.319410
C 	15.303133	11.558998	9.309794
C 	14.842718	12.868869	9.432349
N 	13.578487	13.191538	9.621351
C 	12.744635	12.153391	9.602155
X 	16.189366	8.932838	7.840137
X 	9.786569	5.529582	13.187563
X 	13.862278	8.119925	10.565419
X 	11.245355	5.716794	11.638186
X 	8.677070	2.701696	18.311186
X 	13.335773	13.878659	9.798707
   0   18 S
   0   22 S
   1   14 S
   1   20 S
   2    3 S
   2   23 S
   3    2 S
   3   16 S
   3   38 S
   4   25 S
   5   28 S
   6   27 S
   7   29 S
   8   30 S
   9   31 S
  10   32 S
  11   34 S
  12   35 S
  13   37 S
  14    1 S
  14   15 S
  14   19 S
  15   14 S
  15   21 S
  15   39 S
  16    3 S
  16   17 S
  16   24 S
  17   16 S
  17   23 S
  17   40 S
  18    0 S
  18   23 S
  18   32 S
  19   14 S
  19   27 S
  19   29 S
  20    1 S
  20   21 S
  20   22 S
  21   15 S
  21   20 S
  21   41 S
  22    0 S
  22   20 S
  22   33 S
  23    2 S
  23   17 S
  23   18 S
  24   16 S
  24   31 S
  24   34 S
  25    4 S
  25   26 S
  25   29 S
  26   25 S
  26   28 S
  26   42 S
  27    6 S
  27   19 S
  27   28 S
  28    5 S
  28   26 S
  28   27 S
  29    7 S
  29   19 S
  29   25 S
  30    8 S
  30   32 S
  30   33 S
  31    9 S
  31   24 S
  31   37 S
  32   10 S
  32   18 S
  32   30 S
  33   22 S
  33   30 S
  34   11 S
  34   24 S
  34   35 S
  35   12 S
  35   34 S
  35   36 S
  36   35 S
  36   37 S
  36   43 S
  37   13 S
  37   31 S
  37   36 S
  38    3 S
  39   15 S
  40   17 S
  41   21 S
  42   26 S
  43   36 S
