43
   40   41   42
C 	5.953980	4.958443	15.096235
C 	6.271081	5.749165	16.030023
C 	4.436667	7.206114	15.488625
C 	5.540367	6.846482	16.261814
C 	4.050955	6.378491	14.534969
C 	4.720939	5.164937	14.306489
U 	8.581718	1.721283	14.076353
O 	7.321584	0.952637	12.116061
O 	9.198663	-0.006131	12.440569
C 	8.136794	-0.051389	11.717049
C 	6.697558	3.738116	14.775039
C 	7.918026	-0.892781	10.667366
C 	6.471792	-1.637371	8.978601
C 	6.692683	-0.819865	9.978615
C 	8.740747	-2.548861	9.349467
C 	7.479734	-2.620414	8.589523
C 	8.917676	-1.714724	10.311401
C 	12.398065	1.500702	16.036645
C 	14.604646	0.867969	16.318106
C 	13.959571	2.723690	17.468784
C 	12.732189	2.630220	16.836325
C 	15.036429	1.804545	17.041626
C 	13.293015	0.724091	15.654190
C 	11.070321	1.488527	15.511804
O 	6.498999	2.966438	13.813105
O 	7.649084	3.474203	15.460479
O 	10.725201	0.639447	14.587950
O 	10.124830	2.262969	15.899226
H 	7.016065	5.567451	16.558176
H 	5.781794	7.393826	16.972089
H 	3.319008	6.602407	14.006816
H 	4.411186	4.532969	13.697209
H 	5.667496	-1.593103	8.510051
H 	6.046237	-0.199794	10.228618
H 	9.432459	-3.127447	9.124298
H 	9.732733	-1.683756	10.758427
H 	15.200487	0.164243	16.182343
H 	14.103420	3.348438	18.140979
H 	12.115285	3.316817	16.934009
H 	13.142420	0.089698	14.988618
X 	4.108232	7.867039	15.622076
X 	7.324094	-3.116533	8.049021
X 	15.755895	1.860252	17.245990
   0    1 S
   0    5 S
   0   10 S
   1    0 S
   1    3 S
   1   28 S
   2    3 S
   2    4 S
   2   40 S
   3    1 S
   3    2 S
   3   29 S
   4    2 S
   4    5 S
   4   30 S
   5    0 S
   5    4 S
   5   31 S
   6    7 S
   6    8 S
   6    9 S
   6   10 S
   6   23 S
   6   24 S
   6   25 S
   6   26 S
   6   27 S
   7    6 S
   7    9 S
   8    6 S
   8    9 S
   9    6 S
   9    7 S
   9    8 S
   9   11 S
  10    0 S
  10    6 S
  10   24 S
  10   25 S
  11    9 S
  11   13 S
  11   16 S
  12   13 S
  12   15 S
  12   32 S
  13   11 S
  13   12 S
  13   33 S
  14   15 S
  14   16 S
  14   34 S
  15   12 S
  15   14 S
  15   41 S
  16   11 S
  16   14 S
  16   35 S
  17   20 S
  17   22 S
  17   23 S
  18   21 S
  18   22 S
  18   36 S
  19   20 S
  19   21 S
  19   37 S
  20   17 S
  20   19 S
  20   38 S
  21   18 S
  21   19 S
  21   42 S
  22   17 S
  22   18 S
  22   39 S
  23    6 S
  23   17 S
  23   26 S
  23   27 S
  24    6 S
  24   10 S
  25    6 S
  25   10 S
  26    6 S
  26   23 S
  27    6 S
  27   23 S
  28    1 S
  29    3 S
  30    4 S
  31    5 S
  32   12 S
  33   13 S
  34   14 S
  35   16 S
  36   18 S
  37   19 S
  38   20 S
  39   22 S
  40    2 S
  41   15 S
  42   21 S
