38
   36   37
H 	13.948967	8.206423	12.081333
H 	14.311698	7.196155	10.049901
H 	17.951363	6.085662	11.265510
H 	17.613447	7.156065	13.280690
H 	16.163451	7.595051	8.034720
H 	16.902820	2.698057	9.897137
H 	15.815106	3.584046	10.599200
H 	17.336267	3.878708	10.834304
C 	14.765441	7.794298	11.916543
C 	15.739872	7.806525	12.890005
C 	14.980266	7.178515	10.696059
C 	16.164743	6.541686	10.424659
C 	17.148135	6.527855	11.420549
H 	19.527415	2.527675	3.737835
H 	19.114444	3.712334	5.662007
C 	16.944283	7.161477	12.635833
C 	16.413371	5.902852	9.101791
H 	17.135685	3.116998	7.631684
C 	16.363359	6.690620	7.952163
C 	16.684800	4.530571	8.998107
C 	16.684745	3.585048	10.192914
C 	16.605216	6.158024	6.676423
C 	16.897230	4.800577	6.574039
C 	16.935205	4.021227	7.718467
C 	17.184262	4.136687	5.285624
C 	16.562922	7.058646	5.483567
C 	16.195502	3.962496	4.337189
C 	16.440052	3.243281	3.168059
C 	17.695806	2.710485	2.938263
C 	18.682997	2.888885	3.881173
C 	18.432924	3.597075	5.038277
H 	16.344520	7.949847	5.762767
H 	17.421193	7.059849	5.050953
H 	15.896030	6.745143	4.868936
H 	15.353351	4.329720	4.482152
H 	15.761338	3.123011	2.544978
X 	15.629541	8.160607	13.541890
X 	17.826283	2.281310	2.337194
   0    8 S
   1   10 S
   2   12 S
   3   15 S
   4   18 S
   5   20 S
   6   20 S
   7   20 S
   8    0 S
   8    9 S
   8   10 S
   9    8 S
   9   15 S
   9   36 S
  10    1 S
  10    8 S
  10   11 S
  11   10 S
  11   12 S
  11   16 S
  12    2 S
  12   11 S
  12   15 S
  13   29 S
  14   30 S
  15    3 S
  15    9 S
  15   12 S
  16   11 S
  16   18 S
  16   19 S
  17   23 S
  18    4 S
  18   16 S
  18   21 S
  19   16 S
  19   20 S
  19   23 S
  20    5 S
  20    6 S
  20    7 S
  20   19 S
  21   18 S
  21   22 S
  21   25 S
  22   21 S
  22   23 S
  22   24 S
  23   17 S
  23   19 S
  23   22 S
  24   22 S
  24   26 S
  24   30 S
  25   21 S
  25   31 S
  25   32 S
  25   33 S
  26   24 S
  26   27 S
  26   34 S
  27   26 S
  27   28 S
  27   35 S
  28   27 S
  28   29 S
  28   37 S
  29   13 S
  29   28 S
  29   30 S
  30   14 S
  30   24 S
  30   29 S
  31   25 S
  32   25 S
  33   25 S
  34   26 S
  35   27 S
  36    9 S
  37   28 S
