26
   20   21   22   23   24   25
Dy 	5.928712	2.910156	8.985992
C 	6.686316	3.436583	2.743445
C 	4.652762	3.517219	11.471297
Dy 	5.410365	4.043646	5.228751
O 	4.763514	2.425466	11.024954
O 	5.181814	4.522748	10.732131
O 	4.770702	0.917880	8.304253
O 	5.209625	2.150109	6.535939
C 	4.754093	1.090340	7.061884
C 	6.584984	5.863462	7.152858
O 	3.559723	4.647931	6.547310
O 	3.745435	3.575641	8.537374
O 	6.575564	4.528336	3.189788
O 	6.157263	2.431054	3.482612
O 	6.568375	6.035922	5.910490
O 	6.129452	4.803694	7.678804
O 	7.779355	2.305871	7.667432
O 	7.593642	3.378161	5.677368
C 	3.242459	4.415669	7.732820
C 	8.096619	2.538134	6.481923
X 	7.039617	3.256584	2.106831
X 	4.299460	3.697219	12.107912
X 	4.409570	0.573763	6.641227
X 	6.929507	6.380039	7.573516
X 	2.676075	4.831400	7.995265
X 	8.663002	2.122402	6.219478
   0    4 S
   0    5 S
   0    6 S
   0    7 S
   0   11 S
   0   15 S
   0   16 S
   1   12 S
   1   13 S
   1   20 S
   2    4 S
   2    5 S
   2   21 S
   3    7 S
   3   10 S
   3   12 S
   3   13 S
   3   14 S
   3   15 S
   3   17 S
   4    0 S
   4    2 S
   5    0 S
   5    2 S
   6    0 S
   6    8 S
   7    0 S
   7    3 S
   7    8 S
   8    6 S
   8    7 S
   8   22 S
   9   14 S
   9   15 S
   9   23 S
  10    3 S
  10   18 S
  11    0 S
  11   18 S
  12    1 S
  12    3 S
  13    1 S
  13    3 S
  14    3 S
  14    9 S
  15    0 S
  15    3 S
  15    9 S
  16    0 S
  16   19 S
  17    3 S
  17   19 S
  18   10 S
  18   11 S
  18   24 S
  19   16 S
  19   17 S
  19   25 S
  20    1 S
  21    2 S
  22    8 S
  23    9 S
  24   18 S
  25   19 S
