46
   40   41   42   43   44   45
La 	5.712602	3.115790	9.136506
La 	5.248339	4.152028	5.175287
C 	4.418088	3.878113	11.650086
C 	3.703268	4.164466	12.940723
C 	3.301804	3.123718	13.776532
C 	2.642778	3.395536	14.958686
C 	2.413204	4.696472	15.345104
C 	2.825094	5.732859	14.549369
C 	3.467092	5.456682	13.341453
C 	4.536846	1.117797	7.189959
C 	2.891582	4.603435	7.712339
C 	6.542853	3.389705	2.661707
C 	7.257673	3.103352	1.371070
C 	7.659137	4.144100	0.535261
C 	8.318163	3.872283	-0.646893
C 	8.547737	2.571346	-1.033311
C 	8.135848	1.534959	-0.237576
C 	7.493849	1.811137	0.970340
C 	6.424096	6.150022	7.121834
C 	8.069360	2.664384	6.599454
O 	4.573311	2.665844	11.339806
O 	4.827151	4.811298	10.938503
O 	4.528316	0.969535	8.421345
O 	5.069334	2.152731	6.634947
O 	3.419316	3.780721	8.504067
O 	3.208103	4.732800	6.503851
O 	6.387630	4.601975	2.971987
O 	6.133790	2.456521	3.373290
O 	6.432625	6.298283	5.890448
O 	5.891608	5.115088	7.676846
O 	7.541626	3.487098	5.807726
O 	7.752838	2.535019	7.807942
H 	3.478364	2.242861	13.536094
H 	2.352416	2.694920	15.496809
H 	2.678740	6.612264	14.809843
H 	3.740912	6.158750	12.797605
H 	7.482577	5.024958	0.775699
H 	8.608526	4.572898	-1.185016
H 	8.282202	0.655555	-0.498050
H 	7.220029	1.109068	1.514188
X 	2.122649	4.815932	16.026138
X 	4.229582	0.593180	6.750793
X 	2.356127	5.052846	7.984032
X 	8.838293	2.451886	-1.714345
X 	6.731359	6.674638	7.561000
X 	8.604815	2.214972	6.327761
   0    2 S
   0   20 S
   0   21 S
   0   22 S
   0   23 S
   0   24 S
   0   29 S
   0   31 S
   1   11 S
   1   23 S
   1   25 S
   1   26 S
   1   27 S
   1   28 S
   1   29 S
   1   30 S
   2    0 S
   2    3 S
   2   20 S
   2   21 S
   3    2 S
   3    4 S
   3    8 S
   4    3 S
   4    5 S
   4   32 S
   5    4 S
   5    6 S
   5   33 S
   6    5 S
   6    7 S
   6   40 S
   7    6 S
   7    8 S
   7   34 S
   8    3 S
   8    7 S
   8   35 S
   9   22 S
   9   23 S
   9   41 S
  10   24 S
  10   25 S
  10   42 S
  11    1 S
  11   12 S
  11   26 S
  11   27 S
  12   11 S
  12   13 S
  12   17 S
  13   12 S
  13   14 S
  13   36 S
  14   13 S
  14   15 S
  14   37 S
  15   14 S
  15   16 S
  15   43 S
  16   15 S
  16   17 S
  16   38 S
  17   12 S
  17   16 S
  17   39 S
  18   28 S
  18   29 S
  18   44 S
  19   30 S
  19   31 S
  19   45 S
  20    0 S
  20    2 S
  21    0 S
  21    2 S
  22    0 S
  22    9 S
  23    0 S
  23    1 S
  23    9 S
  24    0 S
  24   10 S
  25    1 S
  25   10 S
  26    1 S
  26   11 S
  27    1 S
  27   11 S
  28    1 S
  28   18 S
  29    0 S
  29    1 S
  29   18 S
  30    1 S
  30   19 S
  31    0 S
  31   19 S
  32    4 S
  33    5 S
  34    7 S
  35    8 S
  36   13 S
  37   14 S
  38   16 S
  39   17 S
  40    6 S
  41    9 S
  42   10 S
  43   15 S
  44   18 S
  45   19 S
