26
   20   21   22   23   24   25
Tb 	2.150995	4.257083	6.514030
C 	2.276274	6.513394	9.052744
Tb 	5.407942	5.707768	8.208272
O 	2.193833	2.580055	8.303967
O 	3.774079	4.059762	8.530102
O 	1.659861	5.904365	8.151150
C 	6.463575	4.404725	10.511724
O 	3.504161	6.807433	9.047885
C 	4.500990	6.826352	5.718142
C 	5.282663	3.451457	5.669559
O 	5.749583	5.457295	10.597702
O 	6.678934	3.894608	9.395626
O 	5.365105	7.384795	6.418335
O 	3.784858	5.905089	6.192200
O 	5.899076	4.060485	6.571152
O 	4.054776	3.157418	5.674417
C 	1.095362	5.560125	4.210578
O 	1.809354	4.507555	4.124600
O 	0.880004	6.070243	5.326676
C 	3.057947	3.138499	9.004160
X 	1.899229	6.739552	9.660353
X 	6.717363	4.109100	11.152580
X 	4.396451	7.037119	5.005998
X 	5.659708	3.225299	5.061949
X 	0.841574	5.855751	3.569722
X 	3.162486	2.927731	9.716304
   0    3 S
   0    4 S
   0    5 S
   0   13 S
   0   15 S
   0   17 S
   0   18 S
   1    5 S
   1    7 S
   1   20 S
   2    4 S
   2    7 S
   2   10 S
   2   11 S
   2   12 S
   2   13 S
   2   14 S
   3    0 S
   3   19 S
   4    0 S
   4    2 S
   4   19 S
   5    0 S
   5    1 S
   6   10 S
   6   11 S
   6   21 S
   7    1 S
   7    2 S
   8   12 S
   8   13 S
   8   22 S
   9   14 S
   9   15 S
   9   23 S
  10    2 S
  10    6 S
  11    2 S
  11    6 S
  12    2 S
  12    8 S
  13    0 S
  13    2 S
  13    8 S
  14    2 S
  14    9 S
  15    0 S
  15    9 S
  16   17 S
  16   18 S
  16   24 S
  17    0 S
  17   16 S
  18    0 S
  18   16 S
  19    3 S
  19    4 S
  19   25 S
  20    1 S
  21    6 S
  22    8 S
  23    9 S
  24   16 S
  25   19 S
