46
   40   41   42   43   44   45
C 	9.657642	0.335048	3.012849
Eu 	9.078598	-0.905067	5.495283
C 	9.962402	0.968648	1.687549
C 	8.940484	1.469576	0.912984
C 	9.175214	1.921663	-0.385810
C 	10.468173	1.924308	-0.877643
C 	11.506950	1.458019	-0.073628
C 	11.248877	0.988376	1.195715
C 	7.334984	0.321683	7.504143
C 	10.490220	1.950112	6.694238
C 	9.795108	-1.522425	11.712707
Eu 	10.374152	-0.282310	9.230273
C 	9.490348	-2.156025	13.038007
C 	10.512266	-2.656953	13.812572
C 	10.277536	-3.109040	15.111366
C 	8.984577	-3.111685	15.603199
C 	7.945800	-2.645396	14.799184
C 	8.203873	-2.175753	13.529841
C 	12.117766	-1.509060	7.221413
C 	8.962530	-3.137489	8.031318
O 	10.592671	-0.173085	3.682567
O 	8.471024	0.336466	3.436650
O 	7.066536	0.209802	6.278683
O 	8.378948	-0.222075	7.980073
O 	9.674501	1.369925	5.944707
O 	10.748293	1.631283	7.876406
O 	8.860079	-1.014292	11.042989
O 	10.981726	-1.523843	11.288906
O 	12.386214	-1.397179	8.446874
O 	11.073802	-0.965302	6.745483
O 	9.778249	-2.557302	8.780849
O 	8.704457	-2.818660	6.849151
H 	8.078079	1.508463	1.260508
H 	8.471024	2.216625	-0.918875
H 	12.379730	1.464211	-0.397590
H 	11.949176	0.680839	1.725835
H 	11.374671	-2.695840	13.465049
H 	10.981726	-3.404002	15.644431
H 	7.073020	-2.651588	15.123146
H 	7.503574	-1.868216	12.999721
X 	10.575032	2.131157	-1.590591
X 	6.867732	0.711245	7.942797
X 	10.874281	2.525646	6.404829
X 	8.877718	-3.318534	16.316147
X 	12.585018	-1.898622	6.782759
X 	8.578469	-3.713023	8.320728
   0    1 S
   0    2 S
   0   20 S
   0   21 S
   1    0 S
   1   20 S
   1   21 S
   1   22 S
   1   23 S
   1   24 S
   1   29 S
   1   31 S
   2    0 S
   2    3 S
   2    7 S
   3    2 S
   3    4 S
   3   32 S
   4    3 S
   4    5 S
   4   33 S
   5    4 S
   5    6 S
   5   40 S
   6    5 S
   6    7 S
   6   34 S
   7    2 S
   7    6 S
   7   35 S
   8   22 S
   8   23 S
   8   41 S
   9   24 S
   9   25 S
   9   42 S
  10   11 S
  10   12 S
  10   26 S
  10   27 S
  11   10 S
  11   23 S
  11   25 S
  11   26 S
  11   27 S
  11   28 S
  11   29 S
  11   30 S
  12   10 S
  12   13 S
  12   17 S
  13   12 S
  13   14 S
  13   36 S
  14   13 S
  14   15 S
  14   37 S
  15   14 S
  15   16 S
  15   43 S
  16   15 S
  16   17 S
  16   38 S
  17   12 S
  17   16 S
  17   39 S
  18   28 S
  18   29 S
  18   44 S
  19   30 S
  19   31 S
  19   45 S
  20    0 S
  20    1 S
  21    0 S
  21    1 S
  22    1 S
  22    8 S
  23    1 S
  23    8 S
  23   11 S
  24    1 S
  24    9 S
  25    9 S
  25   11 S
  26   10 S
  26   11 S
  27   10 S
  27   11 S
  28   11 S
  28   18 S
  29    1 S
  29   11 S
  29   18 S
  30   11 S
  30   19 S
  31    1 S
  31   19 S
  32    3 S
  33    4 S
  34    6 S
  35    7 S
  36   13 S
  37   14 S
  38   16 S
  39   17 S
  40    5 S
  41    8 S
  42    9 S
  43   15 S
  44   18 S
  45   19 S
