27
   23   24   25   26
Cu 	13.600033	4.931607	3.160873
N 	13.302505	5.843008	1.406438
N 	12.384594	6.599016	-0.417402
C 	12.217751	5.963713	0.771154
C 	13.744814	6.921783	-0.500638
C 	14.288329	6.459634	0.646300
O 	12.148500	3.679716	2.690470
C 	14.679238	7.228816	4.252362
O 	13.466858	7.521299	4.439642
H 	11.398339	5.652979	1.082063
H 	15.181876	6.540699	0.889887
N 	13.706518	4.140788	4.978226
N 	14.522227	3.541196	6.934263
C 	14.773273	4.183523	5.779981
C 	12.786874	3.321208	5.622078
C 	13.305032	3.001257	6.822874
C 	10.900449	3.804218	2.954865
O 	10.420799	4.699326	3.623198
H 	15.577495	4.600645	5.570668
H 	11.965403	3.043752	5.285463
O 	15.015802	6.209229	3.609734
H 	14.180712	7.360047	-1.195900
H 	12.882783	2.486734	7.471623
X 	11.855496	6.786911	-0.914645
X 	15.209858	7.690045	4.513532
X 	15.006838	3.480513	7.503446
X 	10.465448	3.295171	2.617011
   0    1 S
   0    6 S
   0   11 S
   0   20 S
   1    0 S
   1    3 S
   1    5 S
   2    3 S
   2    4 S
   2   23 S
   3    1 S
   3    2 S
   3    9 S
   4    2 S
   4    5 S
   4   21 S
   5    1 S
   5    4 S
   5   10 S
   6    0 S
   6   16 S
   7    8 S
   7   20 S
   7   24 S
   8    7 S
   9    3 S
  10    5 S
  11    0 S
  11   13 S
  11   14 S
  12   13 S
  12   15 S
  12   25 S
  13   11 S
  13   12 S
  13   18 S
  14   11 S
  14   15 S
  14   19 S
  15   12 S
  15   14 S
  15   22 S
  16    6 S
  16   17 S
  16   26 S
  17   16 S
  18   13 S
  19   14 S
  20    0 S
  20    7 S
  21    4 S
  22   15 S
  23    2 S
  24    7 S
  25   12 S
  26   16 S
