20

C         18.26749       11.34275       11.58954
C         18.48858       12.29832       12.53601
C         20.11604       10.81799       13.48248
C         19.89495        9.86242       12.53601
N         18.99984        9.01765       10.84239
N         19.38368       13.14309       14.22962
C         18.95686       10.14873       11.58954
C         19.42667       12.01201       13.48248
N         17.30943       11.94552       10.84239
N         21.07409       10.21521       14.22962
H         18.76580       13.87013       13.98698
H         19.97035       13.23710       15.01462
H         21.39479        9.31660       13.98698
H         21.44884       10.67628       15.01462
H         16.93469       11.48445       10.05740
H         16.98874       12.84414       11.08504
H         18.41317        8.92364       10.05740
H         19.61772        8.29060       11.08504
X         18.11358       12.94784       12.53601
X         20.26995        9.21290       12.53601
   0    1 S
   0    6 S
   0    8 S
   1    0 S
   1    7 S
   1   18 S
   2    3 S
   2    7 S
   2    9 S
   3    2 S
   3    6 S
   3   19 S
   4    6 S
   4   16 S
   4   17 S
   5    7 S
   5   10 S
   5   11 S
   6    0 S
   6    3 S
   6    4 S
   7    1 S
   7    2 S
   7    5 S
   8    0 S
   8   14 S
   8   15 S
   9    2 S
   9   12 S
   9   13 S
  10    5 S
  11    5 S
  12    9 S
  13    9 S
  14    8 S
  15    8 S
  16    4 S
  17    4 S
 
  18    1 S
  19    3 S