26
   24   25
C 	7.306481	4.213248	10.216687
C 	6.724970	3.523932	9.164507
C 	6.773481	5.417425	10.638188
C 	5.655963	5.963282	9.991781
C 	5.094053	5.255588	8.955329
C 	5.623735	4.069241	8.530682
C 	5.039393	7.238777	10.422719
C 	5.524903	8.036990	11.322341
C 	4.875078	9.243910	11.879100
C 	5.394075	9.743136	13.050811
C 	4.751732	10.750914	13.717664
C 	3.580583	11.316521	13.220670
H 	3.398669	9.548383	10.490348
C 	3.100531	10.878189	11.998631
C 	3.734732	9.847370	11.325487
H 	2.331305	11.287445	11.619594
H 	8.073413	3.856658	10.650770
H 	7.169033	5.878249	11.369524
H 	4.319878	5.601206	8.524391
H 	5.230751	3.615274	7.794628
H 	4.222974	7.491133	10.007509
H 	6.388125	7.825779	11.658913
H 	6.202687	9.386546	13.399965
H 	5.111938	11.070748	14.537075
X 	7.010898	2.867799	8.940375
X 	3.206032	11.815580	13.636784
   0    1 S
   0    2 S
   0   16 S
   1    0 S
   1    5 S
   1   24 S
   2    0 S
   2    3 S
   2   17 S
   3    2 S
   3    4 S
   3    6 S
   4    3 S
   4    5 S
   4   18 S
   5    1 S
   5    4 S
   5   19 S
   6    3 S
   6    7 S
   6   20 S
   7    6 S
   7    8 S
   7   21 S
   8    7 S
   8    9 S
   8   14 S
   9    8 S
   9   10 S
   9   22 S
  10    9 S
  10   11 S
  10   23 S
  11   10 S
  11   13 S
  11   25 S
  12   14 S
  13   11 S
  13   14 S
  13   15 S
  14    8 S
  14   12 S
  14   13 S
  15   13 S
  16    0 S
  17    2 S
  18    4 S
  19    5 S
  20    6 S
  21    7 S
  22    9 S
  23   10 S
  24    1 S
  25   11 S
