40
   34   35   36   37   38   39
C 	7.294788	2.216344	8.717841
N 	5.666085	-0.263877	5.589610
C 	4.552104	0.392249	5.913600
C 	3.427580	0.386763	5.114635
C 	3.466867	-0.282529	3.897314
C 	4.656145	-0.818786	3.524568
C 	5.718939	-0.775172	4.388017
Zn 	7.237340	-0.102314	6.848294
C 	9.626664	1.404416	6.185688
N 	10.917634	0.263877	10.138049
C 	10.864780	0.775172	11.339642
C 	12.031615	-0.392249	9.814059
C 	13.156139	-0.386763	10.613024
C 	13.116852	0.282529	11.830345
C 	11.927575	0.818785	12.203090
Zn 	9.346380	0.102314	8.879364
O 	6.714425	1.638394	7.772609
C 	6.957055	-1.404416	9.541970
O 	8.305536	1.782950	9.320210
H 	12.052126	-0.885989	9.000939
H 	4.531594	0.885989	6.726720
H 	10.038920	1.138345	11.632176
O 	6.450532	-1.072239	8.453616
O 	8.050552	-0.992692	9.983918
H 	6.544799	-1.138345	4.095482
O 	9.869294	-1.638394	7.955050
O 	8.278183	-1.782950	6.407448
O 	10.133187	1.072239	7.274042
O 	8.533167	0.992692	5.743741
C 	9.288931	-2.216344	7.009817
H 	2.638081	0.833872	5.393014
H 	4.752551	-1.220635	2.668984
H 	13.945638	-0.833872	10.334644
H 	11.831168	1.220635	13.058675
X 	7.008860	2.872477	8.941973
X 	2.865703	-0.239510	3.450938
X 	10.001215	1.903475	5.769574
X 	13.718016	0.239510	12.276720
X 	6.582504	-1.903475	9.958085
X 	9.574859	-2.872477	6.785686
   0   16 S
   0   18 S
   0   34 S
   1    2 S
   1    6 S
   1    7 S
   2    1 S
   2    3 S
   2   20 S
   3    2 S
   3    4 S
   3   30 S
   4    3 S
   4    5 S
   4   35 S
   5    4 S
   5    6 S
   5   31 S
   6    1 S
   6    5 S
   6   24 S
   7    1 S
   7   16 S
   7   22 S
   7   26 S
   7   28 S
   8   27 S
   8   28 S
   8   36 S
   9   10 S
   9   11 S
   9   15 S
  10    9 S
  10   14 S
  10   21 S
  11    9 S
  11   12 S
  11   19 S
  12   11 S
  12   13 S
  12   32 S
  13   12 S
  13   14 S
  13   37 S
  14   10 S
  14   13 S
  14   33 S
  15    9 S
  15   18 S
  15   23 S
  15   25 S
  15   27 S
  16    0 S
  16    7 S
  17   22 S
  17   23 S
  17   38 S
  18    0 S
  18   15 S
  19   11 S
  20    2 S
  21   10 S
  22    7 S
  22   17 S
  23   15 S
  23   17 S
  24    6 S
  25   15 S
  25   29 S
  26    7 S
  26   29 S
  27    8 S
  27   15 S
  28    7 S
  28    8 S
  29   25 S
  29   26 S
  29   39 S
  30    3 S
  31    5 S
  32   12 S
  33   14 S
  34    0 S
  35    4 S
  36    8 S
  37   13 S
  38   17 S
  39   29 S
