17
   13   14   15   16
In 	9.188250	0.000000	7.832438
O 	10.952394	-0.786228	6.594854
O 	8.986109	-1.490480	6.057869
C 	10.093599	1.574320	9.766426
C 	8.149365	1.503522	5.890061
C 	8.282901	-1.574319	9.766426
O 	10.869087	0.876589	9.074218
O 	8.851347	1.516563	9.562958
O 	7.507413	-0.876589	9.074218
O 	9.525152	-1.516563	9.562958
C 	10.227135	-1.503522	5.890061
O 	7.424106	0.786228	6.594854
O 	9.390391	1.490480	6.057869
X 	10.385621	2.024064	10.290786
X 	7.838717	1.961009	5.383401
X 	7.990879	-2.024064	10.290786
X 	10.537783	-1.961009	5.383401
   0    1 S
   0    2 S
   0    6 S
   0    7 S
   0    8 S
   0    9 S
   0   11 S
   0   12 S
   1    0 S
   1   10 S
   2    0 S
   2   10 S
   3    6 S
   3    7 S
   3   13 S
   4   11 S
   4   12 S
   4   14 S
   5    8 S
   5    9 S
   5   15 S
   6    0 S
   6    3 S
   7    0 S
   7    3 S
   8    0 S
   8    5 S
   9    0 S
   9    5 S
  10    1 S
  10    2 S
  10   16 S
  11    0 S
  11    4 S
  12    0 S
  12    4 S
  13    3 S
  14    4 S
  15    5 S
  16   10 S
