46
   38   39   40   41   42   43   44   45
Eu 	-0.253278	0.823963	2.307323
C 	1.728855	-1.546658	0.563140
O 	1.526177	1.042533	3.785164
C 	2.055163	2.997798	-3.242594
C 	3.206377	5.416791	-3.906714
C 	1.779194	3.582394	-4.465313
C 	2.332291	4.810164	-4.821416
C 	2.899650	3.626756	-2.338846
C 	3.489575	4.843049	-2.678119
Eu 	0.253278	-0.823963	-2.307323
O 	-1.714186	1.632733	0.685224
O 	-1.526177	-1.042533	-3.785164
O 	1.714186	-1.632733	-0.685224
O 	-1.115293	0.694122	-1.217108
C 	-2.275881	-1.963519	-4.259612
O 	-2.187480	-3.162953	-3.941710
O 	1.675608	1.148586	-1.782385
C 	1.411255	1.697228	-2.898513
C 	2.275881	1.963519	4.259612
O 	2.187480	3.162953	3.941710
O 	0.616417	1.160018	-3.717309
O 	1.115293	-0.694122	1.217108
C 	-1.411255	-1.697228	2.898513
O 	-1.675608	-1.148586	1.782385
C 	-2.055163	-2.997798	3.242594
C 	-3.206377	-5.416791	3.906714
C 	-1.779194	-3.582394	4.465313
C 	-2.332291	-4.810164	4.821416
C 	-2.899650	-3.626756	2.338846
C 	-3.489575	-4.843049	2.678119
C 	-1.728855	1.546658	-0.563140
O 	-0.616417	-1.160018	3.717309
H 	3.607077	6.226222	-4.132718
H 	1.212945	3.148247	-5.062379
H 	3.070759	3.238012	-1.512035
H 	-3.607077	-6.226222	4.132718
H 	-1.212945	-3.148247	5.062379
H 	-3.070759	-3.238012	1.512035
X 	2.146702	-2.052955	0.925862
X 	2.141837	5.142196	-5.466382
X 	3.940365	5.191402	-2.190330
X 	-2.783546	-1.750258	-4.768823
X 	2.783546	1.750258	4.768823
X 	-2.141837	-5.142196	5.466382
X 	-3.940365	-5.191402	2.190330
X 	-2.146702	2.052955	-0.925862
   0    2 S
   0   10 S
   0   21 S
   0   22 S
   0   23 S
   0   31 S
   1   12 S
   1   21 S
   1   38 S
   2    0 S
   2   18 S
   3    5 S
   3    7 S
   3   17 S
   4    6 S
   4    8 S
   4   32 S
   5    3 S
   5    6 S
   5   33 S
   6    4 S
   6    5 S
   6   39 S
   7    3 S
   7    8 S
   7   34 S
   8    4 S
   8    7 S
   8   40 S
   9   11 S
   9   12 S
   9   13 S
   9   16 S
   9   17 S
   9   20 S
  10    0 S
  10   30 S
  11    9 S
  11   14 S
  12    1 S
  12    9 S
  13    9 S
  13   30 S
  14   11 S
  14   15 S
  14   41 S
  15   14 S
  16    9 S
  16   17 S
  17    3 S
  17    9 S
  17   16 S
  17   20 S
  18    2 S
  18   19 S
  18   42 S
  19   18 S
  20    9 S
  20   17 S
  21    0 S
  21    1 S
  22    0 S
  22   23 S
  22   24 S
  22   31 S
  23    0 S
  23   22 S
  24   22 S
  24   26 S
  24   28 S
  25   27 S
  25   29 S
  25   35 S
  26   24 S
  26   27 S
  26   36 S
  27   25 S
  27   26 S
  27   43 S
  28   24 S
  28   29 S
  28   37 S
  29   25 S
  29   28 S
  29   44 S
  30   10 S
  30   13 S
  30   45 S
  31    0 S
  31   22 S
  32    4 S
  33    5 S
  34    7 S
  35   25 S
  36   26 S
  37   28 S
  38    1 S
  39    6 S
  40    8 S
  41   14 S
  42   18 S
  43   27 S
  44   29 S
  45   30 S
