46
   40   41   42   43   44   45
Eu 	5.706911	-2.979366	14.798444
Eu 	3.203675	-4.263882	11.915960
C 	2.421467	-2.008989	13.703420
C 	5.752492	-3.255344	19.121369
C 	4.595198	-2.973553	19.816210
C 	6.853571	-3.741077	21.188262
C 	4.569789	-3.082096	21.180515
C 	6.874921	-3.646311	19.808463
C 	5.701470	-3.459194	21.898064
C 	5.760144	-3.119975	17.622423
O 	4.477053	-2.360804	11.292980
O 	6.134817	-1.906517	12.703233
C 	5.530091	-1.760326	11.628513
O 	7.052972	-4.842446	14.047769
O 	2.211182	-3.603839	9.731523
O 	4.060937	-4.760490	9.651914
O 	5.394766	-4.736071	12.618014
C 	6.489118	-5.234258	13.010983
O 	4.433533	-4.882443	15.421424
O 	2.775768	-5.336730	14.011170
O 	1.857614	-2.400801	12.666634
O 	6.699404	-3.639408	16.982881
O 	4.849649	-2.482757	17.062490
O 	3.515820	-2.507177	14.096389
C 	3.158093	-3.987903	7.593035
C 	4.315387	-4.269694	6.898193
C 	2.057014	-3.502170	5.526142
C 	4.340797	-4.161151	5.533889
C 	2.035665	-3.596936	6.905940
C 	3.209116	-3.784054	4.816340
C 	3.150441	-4.123272	9.091980
C 	3.380495	-5.482921	15.085891
H 	3.830400	-2.709440	19.357257
H 	7.622318	-3.998789	21.644010
H 	3.780631	-2.900696	21.638667
H 	7.655181	-3.849483	19.343900
H 	5.080186	-4.533807	7.357147
H 	1.288267	-3.244458	5.070394
H 	5.129954	-4.342552	5.075737
H 	1.255404	-3.393765	7.370504
X 	2.098469	-1.461478	14.101420
X 	5.676229	-3.527386	22.644531
X 	5.807311	-1.272990	11.130365
X 	6.812116	-5.781769	12.612984
X 	3.234356	-3.715861	4.069873
X 	3.103274	-5.970258	15.584039
   0    9 S
   0   11 S
   0   13 S
   0   18 S
   0   21 S
   0   22 S
   0   23 S
   1   10 S
   1   14 S
   1   15 S
   1   16 S
   1   19 S
   1   20 S
   1   30 S
   2   20 S
   2   23 S
   2   40 S
   3    4 S
   3    7 S
   3    9 S
   4    3 S
   4    6 S
   4   32 S
   5    7 S
   5    8 S
   5   33 S
   6    4 S
   6    8 S
   6   34 S
   7    3 S
   7    5 S
   7   35 S
   8    5 S
   8    6 S
   8   41 S
   9    0 S
   9    3 S
   9   21 S
   9   22 S
  10    1 S
  10   12 S
  11    0 S
  11   12 S
  12   10 S
  12   11 S
  12   42 S
  13    0 S
  13   17 S
  14    1 S
  14   30 S
  15    1 S
  15   30 S
  16    1 S
  16   17 S
  17   13 S
  17   16 S
  17   43 S
  18    0 S
  18   31 S
  19    1 S
  19   31 S
  20    1 S
  20    2 S
  21    0 S
  21    9 S
  22    0 S
  22    9 S
  23    0 S
  23    2 S
  24   25 S
  24   28 S
  24   30 S
  25   24 S
  25   27 S
  25   36 S
  26   28 S
  26   29 S
  26   37 S
  27   25 S
  27   29 S
  27   38 S
  28   24 S
  28   26 S
  28   39 S
  29   26 S
  29   27 S
  29   44 S
  30    1 S
  30   14 S
  30   15 S
  30   24 S
  31   18 S
  31   19 S
  31   45 S
  32    4 S
  33    5 S
  34    6 S
  35    7 S
  36   25 S
  37   26 S
  38   27 S
  39   28 S
  40    2 S
  41    8 S
  42   12 S
  43   17 S
  44   29 S
  45   31 S
