90
   84   85   86   87   88   89
Eu 	9.178119	8.397135	5.292070
C 	13.603526	12.866453	7.695316
C 	15.189292	12.906584	5.832447
C 	14.980087	14.845226	7.266633
C 	14.226786	12.196590	6.598045
C 	14.017193	14.165894	8.058451
C 	15.535184	14.238043	6.195582
C 	12.373210	14.089842	9.817755
N 	12.579247	12.209325	8.338996
C 	12.010164	12.816168	9.365475
C 	13.402784	14.750021	9.166210
Eu 	12.005853	9.718002	7.817497
N 	13.841746	10.920237	6.320123
C 	14.433391	10.327716	5.281845
C 	15.764800	12.255389	4.745663
C 	15.376585	10.977207	4.453320
H 	11.328840	12.371198	9.815133
H 	15.728947	10.538368	3.712630
H 	16.156282	14.701437	5.681687
H 	11.935593	14.482992	10.537470
H 	14.216257	9.444053	5.095689
H 	5.455024	7.576770	9.396938
H 	16.405432	12.684670	4.225214
H 	9.855132	5.743939	3.294434
H 	6.967714	8.671084	8.013879
H 	9.248379	3.632145	2.572097
H 	15.232364	15.713765	7.488185
H 	4.778539	5.430468	8.884354
H 	5.027689	3.413700	7.427881
H 	13.683204	15.583868	9.466419
H 	5.951608	2.401372	5.621383
N 	7.342226	7.194900	6.789445
C 	6.750581	7.787422	7.827723
C 	5.419172	5.859748	8.363904
C 	5.994680	5.208553	7.277121
C 	5.807386	7.137930	8.656247
C 	6.957185	5.918548	6.511522
H 	7.500767	2.531269	3.643149
N 	8.604725	5.905812	4.770572
C 	8.810761	4.025296	3.291812
C 	7.580445	5.248684	5.414251
C 	9.173807	5.298969	3.744092
C 	7.781187	3.365116	3.943358
C 	7.166779	3.949243	5.051116
O 	8.323186	8.022347	2.910324
O 	10.928634	10.276334	5.769521
O 	9.881352	10.768158	8.363904
O 	8.457166	10.010811	6.823530
O 	9.950983	10.346410	3.817506
O 	7.114216	9.188206	4.309115
O 	12.860786	10.092791	10.199244
O 	10.255338	7.838803	7.340047
O 	11.302620	7.346979	4.745663
O 	12.726806	8.104326	6.286038
O 	11.232989	7.768727	9.292061
O 	14.069755	8.926932	8.800453
C 	10.707474	10.851643	4.652586
C 	6.332921	8.996875	2.075245
C 	4.737262	10.522002	1.068430
C 	5.606282	10.184760	2.102775
C 	4.549512	9.623227	0.030152
C 	6.159250	8.118659	1.005504
C 	5.255379	8.420735	0.009177
C 	8.874958	10.894059	7.608793
C 	7.305957	8.713729	3.169893
C 	6.203885	3.269911	5.842934
C 	5.648787	3.877095	6.913986
C 	10.476498	7.263494	8.456982
C 	14.851050	9.118262	11.034323
C 	15.577690	7.930377	11.006793
C 	16.446710	7.593135	12.041138
C 	16.634459	8.491910	13.079416
C 	15.024721	9.996479	12.104064
C 	15.928593	9.694402	13.100391
C 	12.309014	7.221079	5.500775
C 	13.878014	9.401408	9.939674
H 	5.701995	10.762501	2.825112
H 	3.952693	9.823284	-0.654167
H 	6.650900	7.330277	0.964864
H 	5.115847	7.817420	-0.684319
H 	15.481977	7.352636	10.284456
H 	17.231278	8.291853	13.763735
H 	14.533072	10.784860	12.144703
H 	16.068125	10.297717	13.793887
X 	11.023715	11.521887	4.537410
X 	4.393882	11.188746	1.061855
X 	8.507463	11.547404	7.584545
X 	10.160257	6.593251	8.572157
X 	16.790090	6.926391	12.047713
X 	12.676508	6.567733	5.525023
   0   31 S
   0   38 S
   0   44 S
   0   45 S
   0   47 S
   0   48 S
   0   49 S
   0   51 S
   0   52 S
   0   64 S
   1    4 S
   1    5 S
   1    8 S
   2    4 S
   2    6 S
   2   14 S
   3    5 S
   3    6 S
   3   26 S
   4    1 S
   4    2 S
   4   12 S
   5    1 S
   5    3 S
   5   10 S
   6    2 S
   6    3 S
   6   18 S
   7    9 S
   7   10 S
   7   19 S
   8    1 S
   8    9 S
   8   11 S
   9    7 S
   9    8 S
   9   16 S
  10    5 S
  10    7 S
  10   29 S
  11    8 S
  11   12 S
  11   45 S
  11   46 S
  11   50 S
  11   51 S
  11   53 S
  11   54 S
  11   55 S
  11   75 S
  12    4 S
  12   11 S
  12   13 S
  13   12 S
  13   15 S
  13   20 S
  14    2 S
  14   15 S
  14   22 S
  15   13 S
  15   14 S
  15   17 S
  16    9 S
  17   15 S
  18    6 S
  19    7 S
  20   13 S
  21   35 S
  22   14 S
  23   41 S
  24   32 S
  25   39 S
  26    3 S
  27   33 S
  28   66 S
  29   10 S
  30   65 S
  31    0 S
  31   32 S
  31   36 S
  32   24 S
  32   31 S
  32   35 S
  33   27 S
  33   34 S
  33   35 S
  34   33 S
  34   36 S
  34   66 S
  35   21 S
  35   32 S
  35   33 S
  36   31 S
  36   34 S
  36   40 S
  37   42 S
  38    0 S
  38   40 S
  38   41 S
  39   25 S
  39   41 S
  39   42 S
  40   36 S
  40   38 S
  40   43 S
  41   23 S
  41   38 S
  41   39 S
  42   37 S
  42   39 S
  42   43 S
  43   40 S
  43   42 S
  43   65 S
  44    0 S
  44   64 S
  45    0 S
  45   11 S
  45   56 S
  46   11 S
  46   63 S
  47    0 S
  47   63 S
  48    0 S
  48   56 S
  49    0 S
  49   64 S
  50   11 S
  50   75 S
  51    0 S
  51   11 S
  51   67 S
  52    0 S
  52   74 S
  53   11 S
  53   74 S
  54   11 S
  54   67 S
  55   11 S
  55   75 S
  56   45 S
  56   48 S
  56   84 S
  57   59 S
  57   61 S
  57   64 S
  58   59 S
  58   60 S
  58   85 S
  59   57 S
  59   58 S
  59   76 S
  60   58 S
  60   62 S
  60   77 S
  61   57 S
  61   62 S
  61   78 S
  62   60 S
  62   61 S
  62   79 S
  63   46 S
  63   47 S
  63   86 S
  64    0 S
  64   44 S
  64   49 S
  64   57 S
  65   30 S
  65   43 S
  65   66 S
  66   28 S
  66   34 S
  66   65 S
  67   51 S
  67   54 S
  67   87 S
  68   69 S
  68   72 S
  68   75 S
  69   68 S
  69   70 S
  69   80 S
  70   69 S
  70   71 S
  70   88 S
  71   70 S
  71   73 S
  71   81 S
  72   68 S
  72   73 S
  72   82 S
  73   71 S
  73   72 S
  73   83 S
  74   52 S
  74   53 S
  74   89 S
  75   11 S
  75   50 S
  75   55 S
  75   68 S
  76   59 S
  77   60 S
  78   61 S
  79   62 S
  80   69 S
  81   71 S
  82   72 S
  83   73 S
  84   56 S
  85   58 S
  86   63 S
  87   67 S
  88   70 S
  89   74 S
