17
   13   14   15   16
C 	11.113902	3.459861	11.383750
O 	11.863091	3.537543	10.501999
O 	14.171261	1.617390	11.668186
Zn 	13.368350	2.809120	12.910222
O 	13.855497	4.780464	12.970270
C 	13.974002	1.326579	15.255237
O 	15.064845	1.091539	14.806460
O 	11.352395	3.161082	12.505691
C 	14.736644	5.186803	13.801454
O 	15.359245	4.555384	14.626318
C 	15.400309	1.854422	11.380590
O 	16.116972	2.724864	11.971584
O 	13.066501	2.007795	14.692686
X 	10.417579	3.728452	11.309635
X 	13.726164	1.017954	15.892282
X 	14.922105	5.907830	13.710760
X 	15.711426	1.350354	10.920565
   0    1 S
   0    7 S
   0   13 S
   1    0 S
   2    3 S
   2   10 S
   3    2 S
   3    4 S
   3    7 S
   3   12 S
   4    3 S
   4    8 S
   5    6 S
   5   12 S
   5   14 S
   6    5 S
   7    0 S
   7    3 S
   8    4 S
   8    9 S
   8   15 S
   9    8 S
  10    2 S
  10   11 S
  10   16 S
  11   10 S
  12    3 S
  12    5 S
  13    0 S
  14    5 S
  15    8 S
  16   10 S
