36
   29   30   31   32   33   34   35
O 	10.299245	8.373487	17.029892
Tb 	10.440376	10.194370	15.644652
Eu 	8.888100	10.121071	11.097429
C 	10.315083	7.119391	16.981221
O 	10.565802	6.452985	15.957000
C 	7.818110	8.731661	13.860421
O 	9.029231	11.941955	9.712189
C 	11.088777	8.482206	10.319769
C 	9.013393	13.196051	9.760860
O 	8.762674	13.862457	10.785081
C 	11.510366	11.583781	12.881660
C 	12.352787	7.723798	10.025606
C 	12.816599	6.773502	10.910769
C 	14.003111	6.077643	10.629977
C 	14.686472	6.342603	9.450651
C 	14.237740	7.311767	8.546769
C 	13.067954	7.992675	8.862326
O 	8.512698	9.505556	14.539937
O 	7.805623	8.719609	12.602473
O 	8.575979	10.860610	17.170823
O 	8.938192	12.146790	15.425100
C 	8.239699	11.833236	16.422312
O 	10.815778	10.809885	12.202144
O 	11.522853	11.595833	14.139608
O 	10.752498	9.454832	9.571258
O 	10.390285	8.168652	11.316981
H 	12.345575	6.594638	11.691638
H 	15.460549	5.863410	9.255434
H 	12.755099	8.646522	8.282022
X 	10.146505	6.755126	17.614776
X 	7.352768	8.263338	14.216272
X 	9.181971	13.560316	9.127304
X 	11.975708	12.052104	12.525809
X 	14.282540	5.589318	11.125919
X 	14.653809	7.493234	7.949729
X 	7.609015	12.211647	16.569086
   0    1 S
   0    3 S
   1    0 S
   1   17 S
   1   19 S
   1   20 S
   1   23 S
   2    6 S
   2    7 S
   2   18 S
   2   22 S
   2   24 S
   2   25 S
   3    0 S
   3    4 S
   3   29 S
   4    3 S
   5   17 S
   5   18 S
   5   30 S
   6    2 S
   6    8 S
   7    2 S
   7   11 S
   7   24 S
   7   25 S
   8    6 S
   8    9 S
   8   31 S
   9    8 S
  10   22 S
  10   23 S
  10   32 S
  11    7 S
  11   12 S
  11   16 S
  12   11 S
  12   13 S
  12   26 S
  13   12 S
  13   14 S
  13   33 S
  14   13 S
  14   15 S
  14   27 S
  15   14 S
  15   16 S
  15   34 S
  16   11 S
  16   15 S
  16   28 S
  17    1 S
  17    5 S
  18    2 S
  18    5 S
  19    1 S
  19   21 S
  20    1 S
  20   21 S
  21   19 S
  21   20 S
  21   35 S
  22    2 S
  22   10 S
  23    1 S
  23   10 S
  24    2 S
  24    7 S
  25    2 S
  25    7 S
  26   12 S
  27   14 S
  28   16 S
  29    3 S
  30    5 S
  31    8 S
  32   10 S
  33   13 S
  34   15 S
  35   21 S
