42
   36   37   38   39   40   41
C 	22.151142	18.702496	5.556090
C 	21.732526	18.392067	6.870414
C 	22.150809	17.311073	7.565154
C 	23.091434	16.482572	6.927240
C 	23.575699	16.688573	5.669741
C 	23.062316	17.845581	5.004330
C 	21.664857	17.055842	8.916140
C 	21.655397	18.106791	9.821685
C 	21.236322	17.930498	11.134176
C 	20.821131	16.680503	11.541122
C 	20.822549	15.592159	10.644742
C 	21.281453	15.756991	9.317586
C 	24.444976	15.743331	4.927341
C 	25.500767	15.101172	5.603750
C 	26.298557	14.165607	4.976834
C 	26.111390	13.893371	3.646012
C 	25.077133	14.596204	2.969603
C 	24.305291	15.498252	3.620349
H 	20.363652	22.745038	2.881614
H 	19.672257	19.653747	5.374614
H 	23.332243	20.392521	4.030961
H 	21.131562	18.968038	7.284692
H 	23.404108	15.743447	7.394677
H 	23.367146	18.025927	4.144612
H 	21.935023	18.948442	9.541223
H 	20.535435	16.551921	12.417338
H 	21.331114	15.035453	8.732831
H 	25.665697	15.315381	6.492798
H 	26.641131	13.273135	3.200572
H 	23.653172	15.960022	3.143746
C 	20.679959	22.005913	3.349052
C 	21.995231	21.685977	3.272062
C 	19.787834	21.245825	4.124448
C 	20.258271	20.154595	4.852184
C 	21.605005	19.816752	4.793525
C 	22.424670	20.596855	4.036460
X 	21.196516	18.494522	11.626916
X 	20.557651	14.921323	10.850430
X 	26.838175	13.795852	5.343703
X 	24.945275	14.439204	2.248170
X 	22.424994	22.132585	2.849754
X 	19.056861	21.407321	4.170241
   0    1 S
   0    5 S
   0   34 S
   1    0 S
   1    2 S
   1   21 S
   2    1 S
   2    3 S
   2    6 S
   3    2 S
   3    4 S
   3   22 S
   4    3 S
   4    5 S
   4   12 S
   5    0 S
   5    4 S
   5   23 S
   6    2 S
   6    7 S
   6   11 S
   7    6 S
   7    8 S
   7   24 S
   8    7 S
   8    9 S
   8   36 S
   9    8 S
   9   10 S
   9   25 S
  10    9 S
  10   11 S
  10   37 S
  11    6 S
  11   10 S
  11   26 S
  12    4 S
  12   13 S
  12   17 S
  13   12 S
  13   14 S
  13   27 S
  14   13 S
  14   15 S
  14   38 S
  15   14 S
  15   16 S
  15   28 S
  16   15 S
  16   17 S
  16   39 S
  17   12 S
  17   16 S
  17   29 S
  18   30 S
  19   33 S
  20   35 S
  21    1 S
  22    3 S
  23    5 S
  24    7 S
  25    9 S
  26   11 S
  27   13 S
  28   15 S
  29   17 S
  30   18 S
  30   31 S
  30   32 S
  31   30 S
  31   35 S
  31   40 S
  32   30 S
  32   33 S
  32   41 S
  33   19 S
  33   32 S
  33   34 S
  34    0 S
  34   33 S
  34   35 S
  35   20 S
  35   31 S
  35   34 S
  36    8 S
  37   10 S
  38   14 S
  39   16 S
  40   31 S
  41   32 S
