52
   44   45   46   47   48   49   50   51
H 	5.270219	16.092116	3.412517
H 	7.562259	17.143450	6.591478
H 	5.679587	13.572006	6.547362
H 	9.163951	16.318874	3.537080
H 	9.172370	14.004908	0.223176
H 	6.514108	17.045532	0.557940
H 	5.270219	22.559884	3.412517
H 	7.562259	21.508550	6.591478
H 	5.679587	25.079994	6.547362
H 	9.172370	24.647092	0.223176
H 	9.163951	22.333126	3.537080
H 	6.514108	21.606468	0.557940
H 	6.251018	19.326000	5.722129
H 	7.837977	19.326000	1.349436
C 	5.632231	15.897568	4.269150
C 	5.319680	14.699098	4.889371
C 	6.474119	16.821866	4.893004
C 	6.989775	16.522442	6.155506
C 	6.670910	15.322684	6.776766
C 	5.864802	14.407404	6.136043
C 	8.827196	14.745738	0.708195
C 	9.378632	15.099790	1.920352
C 	7.752736	15.485280	0.196187
C 	8.820882	16.129480	2.670068
C 	7.237080	16.544344	0.916319
C 	7.762207	16.891697	2.166364
C 	7.310745	18.110523	2.877673
C 	6.804560	18.105628	4.197266
C 	5.632231	22.754432	4.269150
C 	5.319680	23.952902	4.889371
C 	6.474119	21.830134	4.893004
C 	6.989775	22.129558	6.155506
C 	6.670910	23.329316	6.776766
C 	5.864802	24.244596	6.136043
C 	8.827196	23.906262	0.708195
C 	9.378632	23.552210	1.920352
C 	7.752736	23.166720	0.196187
C 	8.820882	22.522520	2.670068
C 	7.237080	22.107656	0.916319
C 	7.762207	21.760303	2.166364
C 	7.310745	20.541477	2.877673
C 	6.804560	20.546372	4.197266
C 	6.575145	19.326000	4.828647
C 	7.528583	19.326000	2.246552
X 	4.862469	14.208290	4.553864
X 	6.962824	15.136995	7.442203
X 	9.996088	14.755690	2.171038
X 	7.462096	15.302634	-0.470648
X 	4.862469	24.443710	4.553864
X 	6.962824	23.515005	7.442203
X 	9.996088	23.896310	2.171038
X 	7.462096	23.349366	-0.470648
   0   14 S
   1   17 S
   2   19 S
   3   23 S
   4   20 S
   5   24 S
   6   28 S
   7   31 S
   8   33 S
   9   34 S
  10   37 S
  11   38 S
  12   42 S
  13   43 S
  14    0 S
  14   15 S
  14   16 S
  15   14 S
  15   19 S
  15   44 S
  16   14 S
  16   17 S
  16   27 S
  17    1 S
  17   16 S
  17   18 S
  18   17 S
  18   19 S
  18   45 S
  19    2 S
  19   15 S
  19   18 S
  20    4 S
  20   21 S
  20   22 S
  21   20 S
  21   23 S
  21   46 S
  22   20 S
  22   24 S
  22   47 S
  23    3 S
  23   21 S
  23   25 S
  24    5 S
  24   22 S
  24   25 S
  25   23 S
  25   24 S
  25   26 S
  26   25 S
  26   27 S
  26   43 S
  27   16 S
  27   26 S
  27   42 S
  28    6 S
  28   29 S
  28   30 S
  29   28 S
  29   33 S
  29   48 S
  30   28 S
  30   31 S
  30   41 S
  31    7 S
  31   30 S
  31   32 S
  32   31 S
  32   33 S
  32   49 S
  33    8 S
  33   29 S
  33   32 S
  34    9 S
  34   35 S
  34   36 S
  35   34 S
  35   37 S
  35   50 S
  36   34 S
  36   38 S
  36   51 S
  37   10 S
  37   35 S
  37   39 S
  38   11 S
  38   36 S
  38   39 S
  39   37 S
  39   38 S
  39   40 S
  40   39 S
  40   41 S
  40   43 S
  41   30 S
  41   40 S
  41   42 S
  42   12 S
  42   27 S
  42   41 S
  43   13 S
  43   26 S
  43   40 S
  44   15 S
  45   18 S
  46   21 S
  47   22 S
  48   29 S
  49   32 S
  50   35 S
  51   36 S
