38
   32   33   34   35   36   37
Zn 	2.192486	5.815493	6.282506
O 	3.476582	7.320466	6.838520
C 	0.435856	8.151483	6.357550
Zn 	2.192486	7.747707	3.885994
C 	3.871894	8.342724	6.218648
O 	3.660500	8.619007	5.013477
C 	0.435856	5.411717	3.810950
O 	3.476582	6.242734	3.329980
O 	3.660500	4.944193	5.155023
N 	2.013902	9.035804	2.318825
C 	2.096592	8.783528	1.048576
C 	1.180333	10.751549	1.311330
N 	1.424669	10.290671	2.501248
N 	1.591249	9.847697	0.354474
C 	2.096592	4.779672	9.119924
C 	1.180333	2.811651	8.857170
N 	2.013902	4.527396	7.849675
N 	1.424669	3.272529	7.667252
N 	1.591249	3.715503	9.814026
H 	3.198237	6.484566	9.084538
H 	3.222243	5.746728	10.506094
H 	1.928545	6.574083	10.056646
C 	2.659418	5.999003	9.743457
C 	2.659418	7.564197	0.425043
H 	3.198237	7.078634	1.083962
H 	3.222243	7.816472	-0.337594
H 	1.928545	6.989117	0.111853
O 	0.732474	6.462051	3.189045
O 	0.829568	5.070060	4.940874
C 	3.871894	5.220476	3.949852
O 	0.732474	7.101149	6.979455
O 	0.829568	8.493140	5.227626
X 	-0.021297	8.629942	6.710521
X 	4.267432	8.841401	6.615348
X 	-0.021297	4.933258	3.457979
X 	1.517909	9.897656	-0.390258
X 	1.517909	3.665544	10.558758
X 	4.267432	4.721799	3.553152
   0    1 S
   0    8 S
   0   16 S
   0   28 S
   0   30 S
   1    0 S
   1    4 S
   2   30 S
   2   31 S
   2   32 S
   3    5 S
   3    7 S
   3    9 S
   3   27 S
   3   31 S
   4    1 S
   4    5 S
   4   33 S
   5    3 S
   5    4 S
   6   27 S
   6   28 S
   6   34 S
   7    3 S
   7   29 S
   8    0 S
   8   29 S
   9    3 S
   9   10 S
   9   12 S
  10    9 S
  10   13 S
  10   23 S
  11   12 S
  11   13 S
  12    9 S
  12   11 S
  13   10 S
  13   11 S
  13   35 S
  14   16 S
  14   18 S
  14   22 S
  15   17 S
  15   18 S
  16    0 S
  16   14 S
  16   17 S
  17   15 S
  17   16 S
  18   14 S
  18   15 S
  18   36 S
  19   22 S
  20   22 S
  21   22 S
  22   14 S
  22   19 S
  22   20 S
  22   21 S
  23   10 S
  23   24 S
  23   25 S
  23   26 S
  24   23 S
  25   23 S
  26   23 S
  27    3 S
  27    6 S
  28    0 S
  28    6 S
  29    7 S
  29    8 S
  29   37 S
  30    0 S
  30    2 S
  31    2 S
  31    3 S
  32    2 S
  33    4 S
  34    6 S
  35   13 S
  36   18 S
  37   29 S
