32
   30   31
C 	20.360770	20.593083	17.884901
C 	20.111567	21.512298	18.840094
C 	19.712382	19.435405	17.860409
C 	17.068066	17.698221	19.870647
H 	17.677228	14.924590	17.163326
C 	14.250693	12.711813	19.795287
C 	14.499895	11.792597	18.840094
C 	14.899081	13.869491	19.819779
C 	17.543397	15.606674	17.809541
H 	19.024767	21.923947	20.462226
H 	17.871052	19.986934	20.505558
H 	18.987848	17.194651	17.163326
H 	15.586695	11.380949	17.217962
H 	16.740411	13.317962	17.174630
H 	15.623614	16.110244	20.516862
C 	18.512518	20.128147	19.819779
C 	18.330231	16.969510	17.809541
C 	19.190902	21.268506	19.795287
C 	15.420560	12.036389	17.884901
C 	16.098945	13.176749	17.860409
C 	16.281232	16.335385	19.870647
C 	18.724801	19.110349	18.840094
C 	17.963349	17.791475	18.840094
C 	15.886661	14.194546	18.840094
C 	16.648114	15.513420	18.840094
H 	21.011465	20.776926	17.217962
H 	19.910821	18.809273	17.174630
H 	16.934235	18.380306	20.516862
H 	13.599997	12.527970	20.462226
H 	14.700642	14.495623	20.505558
X 	20.486567	22.161817	18.840094
X 	14.124895	11.143078	18.840094
   0    1 S
   0    2 S
   0   25 S
   1    0 S
   1   17 S
   1   30 S
   2    0 S
   2   21 S
   2   26 S
   3   20 S
   3   22 S
   3   27 S
   4    8 S
   5    6 S
   5    7 S
   5   28 S
   6    5 S
   6   18 S
   6   31 S
   7    5 S
   7   23 S
   7   29 S
   8    4 S
   8   16 S
   8   24 S
   9   17 S
  10   15 S
  11   16 S
  12   18 S
  13   19 S
  14   20 S
  15   10 S
  15   17 S
  15   21 S
  16    8 S
  16   11 S
  16   22 S
  17    1 S
  17    9 S
  17   15 S
  18    6 S
  18   12 S
  18   19 S
  19   13 S
  19   18 S
  19   23 S
  20    3 S
  20   14 S
  20   24 S
  21    2 S
  21   15 S
  21   22 S
  22    3 S
  22   16 S
  22   21 S
  23    7 S
  23   19 S
  23   24 S
  24    8 S
  24   20 S
  24   23 S
  25    0 S
  26    2 S
  27    3 S
  28    5 S
  29    7 S
  30    1 S
  31    6 S
