61
   49   50   51   52   53   54   55   56   57   58   59   60
Mg 	26.394964	17.047165	13.472345
Mg 	27.417117	17.662532	10.253813
Mg 	28.439271	14.808081	11.863079
O 	27.417117	16.505926	11.863079
C 	29.329322	11.931965	11.006881
C 	30.564542	12.675604	12.719277
C 	31.282173	11.458447	12.819718
C 	30.069170	10.728183	10.906440
N 	29.592936	12.891789	11.863079
C 	31.030421	10.504059	11.863079
H 	28.611226	12.049987	10.428437
C 	24.269693	16.915426	15.766506
C 	23.552062	17.208231	16.952182
C 	25.504913	18.775542	15.925472
C 	23.803814	18.419201	17.551821
C 	24.765065	19.254484	17.034432
N 	25.241299	17.658040	15.288662
H 	24.037958	16.147251	15.297045
H 	26.223009	19.286184	15.629211
H 	30.796277	13.365452	13.297721
C 	28.528072	19.479098	7.959651
C 	27.417117	20.594517	6.174337
C 	28.605123	20.250325	6.773976
N 	27.417117	18.967948	8.437496
C 	26.306163	19.257919	7.800686
C 	26.229112	20.135884	6.691726
H 	29.315390	19.324423	8.429113
O 	24.635921	17.356110	12.443895
O 	25.408430	18.055029	10.471619
O 	26.866996	16.146088	8.971177
O 	27.846167	14.390081	9.936989
O 	26.841679	13.663595	12.483755
O 	25.748010	15.116826	13.774933
O 	27.967239	19.361663	11.282263
O 	26.988068	19.006018	13.254539
O 	27.992556	16.823709	14.754981
O 	29.086225	15.136633	13.789168
C 	24.495340	17.756900	11.259327
O 	29.425805	17.330969	9.951225
O 	30.198314	15.684390	11.242403
C 	27.155410	14.923928	9.053269
C 	25.896556	14.004972	13.241252
C 	27.678825	19.673453	12.466830
C 	28.937679	15.996907	14.672889
C 	30.338895	16.679393	10.484905
H 	25.518845	18.862257	8.096947
H 	31.509650	9.708038	11.863079
H 	23.324585	18.672956	18.306312
H 	27.417117	21.136783	5.419845
X 	31.818470	11.404754	13.341255
X 	29.865658	10.229103	10.384902
X 	23.015765	16.731019	17.169329
X 	24.968577	19.907909	17.341219
X 	29.277824	20.500966	6.556829
X 	25.556411	20.261803	6.384939
X 	23.793491	17.790521	10.997072
X 	26.856689	14.472613	8.534058
X 	25.357917	13.496017	13.356720
X 	27.977546	20.309447	12.729086
X 	29.476318	16.049708	15.192100
X 	31.040744	16.917249	10.369437
   0    3 S
   0   16 S
   0   27 S
   0   32 S
   0   34 S
   0   35 S
   1    3 S
   1   23 S
   1   28 S
   1   29 S
   1   33 S
   1   38 S
   2    3 S
   2    8 S
   2   30 S
   2   31 S
   2   36 S
   2   39 S
   3    0 S
   3    1 S
   3    2 S
   4    7 S
   4    8 S
   4   10 S
   5    6 S
   5    8 S
   5   19 S
   6    5 S
   6    9 S
   6   49 S
   7    4 S
   7    9 S
   7   50 S
   8    2 S
   8    4 S
   8    5 S
   9    6 S
   9    7 S
   9   46 S
  10    4 S
  11   12 S
  11   16 S
  11   17 S
  12   11 S
  12   14 S
  12   51 S
  13   15 S
  13   16 S
  13   18 S
  14   12 S
  14   15 S
  14   47 S
  15   13 S
  15   14 S
  15   52 S
  16    0 S
  16   11 S
  16   13 S
  17   11 S
  18   13 S
  19    5 S
  20   22 S
  20   23 S
  20   26 S
  21   22 S
  21   25 S
  21   48 S
  22   20 S
  22   21 S
  22   53 S
  23    1 S
  23   20 S
  23   24 S
  24   23 S
  24   25 S
  24   45 S
  25   21 S
  25   24 S
  25   54 S
  26   20 S
  27    0 S
  27   37 S
  28    1 S
  28   37 S
  29    1 S
  29   40 S
  30    2 S
  30   40 S
  31    2 S
  31   41 S
  32    0 S
  32   41 S
  33    1 S
  33   42 S
  34    0 S
  34   42 S
  35    0 S
  35   43 S
  36    2 S
  36   43 S
  37   27 S
  37   28 S
  37   55 S
  38    1 S
  38   44 S
  39    2 S
  39   44 S
  40   29 S
  40   30 S
  40   56 S
  41   31 S
  41   32 S
  41   57 S
  42   33 S
  42   34 S
  42   58 S
  43   35 S
  43   36 S
  43   59 S
  44   38 S
  44   39 S
  44   60 S
  45   24 S
  46    9 S
  47   14 S
  48   21 S
  49    6 S
  50    7 S
  51   12 S
  52   15 S
  53   22 S
  54   25 S
  55   37 S
  56   40 S
  57   41 S
  58   42 S
  59   43 S
  60   44 S
