20
   18   19
H 	22.849817	10.808123	2.646865
H 	24.077433	5.447953	-2.646865
H 	20.816928	7.293560	2.651463
H 	26.110322	8.962517	-2.651463
H 	22.919269	6.112285	-0.758656
H 	24.007981	10.143792	0.758656
C 	22.682756	9.976896	2.263706
C 	21.751719	9.140250	2.812390
C 	23.553725	6.673661	-1.138750
C 	23.118240	8.372963	0.596196
C 	24.244494	6.279180	-2.263706
C 	25.175531	7.115826	-2.812390
C 	23.809010	7.883113	-0.596196
C 	25.473988	8.406559	-2.265238
C 	23.373525	9.582415	1.138750
C 	21.453262	7.849517	2.265238
N 	24.771957	8.788035	-1.135684
N 	22.155293	7.468041	1.135684
X 	21.362102	9.330754	3.424278
X 	25.565148	6.925322	-3.424278
   0    6 S
   1   10 S
   2   15 S
   3   13 S
   4    8 S
   5   14 S
   6    0 S
   6    7 S
   6   14 S
   7    6 S
   7   15 S
   7   18 S
   8    4 S
   8   10 S
   8   12 S
   9   12 S
   9   14 S
   9   17 S
  10    1 S
  10    8 S
  10   11 S
  11   10 S
  11   13 S
  11   19 S
  12    8 S
  12    9 S
  12   16 S
  13    3 S
  13   11 S
  13   16 S
  14    5 S
  14    6 S
  14    9 S
  15    2 S
  15    7 S
  15   17 S
  16   12 S
  16   13 S
  17    9 S
  17   15 S
  18    7 S
  19   11 S
