38
   33   34   35   36   37
C 	13.079030	17.342578	11.586488
C 	14.306207	17.312400	12.149651
N 	14.133616	17.639736	13.472093
N 	12.134562	17.667097	12.521061
C 	12.815894	17.812558	13.643819
H 	12.900928	17.165531	10.690186
Co 	10.025714	17.540549	12.213305
C 	9.541344	18.097644	14.935921
O 	9.856498	16.923097	15.098326
N 	7.929367	17.406556	11.922403
C 	5.804607	16.851674	12.298374
C 	7.018988	16.956293	12.849639
C 	7.225675	17.575757	10.826416
N 	5.931323	17.252847	10.987037
O 	10.225110	18.959542	10.740752
H 	7.218451	16.755103	13.736027
H 	7.584314	17.885791	10.025891
O 	9.636721	18.713285	13.834778
C 	10.386654	18.302254	9.686804
O 	10.339900	17.076202	9.679467
N 	10.143090	15.407533	12.339818
C 	10.273348	12.604352	12.494886
C 	10.944596	13.413941	13.399517
C 	10.855716	14.775997	13.291048
C 	9.479650	14.625306	11.469890
C 	9.539663	13.256007	11.509351
H 	11.313229	15.294464	13.910528
H 	8.959883	15.030905	10.813130
H 	12.425011	18.012541	14.463776
H 	15.108300	17.109198	11.725296
H 	5.027678	16.561961	12.718763
H 	11.454299	13.033088	14.077097
H 	9.085383	12.757458	10.868653
X 	14.659724	17.609326	14.005746
X 	9.283291	18.486985	15.522711
X 	5.397395	17.278580	10.460959
X 	10.515971	18.682138	9.053191
X 	10.313840	11.855961	12.522646
   0    1 S
   0    3 S
   0    5 S
   1    0 S
   1    2 S
   1   29 S
   2    1 S
   2    4 S
   2   33 S
   3    0 S
   3    4 S
   3    6 S
   4    2 S
   4    3 S
   4   28 S
   5    0 S
   6    3 S
   6    9 S
   6   14 S
   6   17 S
   6   20 S
   7    8 S
   7   17 S
   7   34 S
   8    7 S
   9    6 S
   9   11 S
   9   12 S
  10   11 S
  10   13 S
  10   30 S
  11    9 S
  11   10 S
  11   15 S
  12    9 S
  12   13 S
  12   16 S
  13   10 S
  13   12 S
  13   35 S
  14    6 S
  14   18 S
  15   11 S
  16   12 S
  17    6 S
  17    7 S
  18   14 S
  18   19 S
  18   36 S
  19   18 S
  20    6 S
  20   23 S
  20   24 S
  21   22 S
  21   25 S
  21   37 S
  22   21 S
  22   23 S
  22   31 S
  23   20 S
  23   22 S
  23   26 S
  24   20 S
  24   25 S
  24   27 S
  25   21 S
  25   24 S
  25   32 S
  26   23 S
  27   24 S
  28    4 S
  29    1 S
  30   10 S
  31   22 S
  32   25 S
  33    2 S
  34    7 S
  35   13 S
  36   18 S
  37   21 S
