18

C      -6.80       3.93      14.82
C      -9.30       8.25      14.82
C      -9.30       3.97      14.73
C      -8.09       6.07      14.73
C     -10.51       6.07      14.73
H      -9.30       2.88      14.76
H      -7.14       6.61      14.76
O      -5.74       4.63      14.87
O     -11.72       2.65      14.87
O     -12.86       4.63      14.87
O     -10.44       8.82      14.87
O      -8.16       8.82      14.87
C     -10.51       4.67      14.73
C      -8.09       4.67      14.73
H     -11.45       6.61      14.76
O      -6.87       2.65      14.87
C      -9.30       6.76      14.73
C     -11.79       3.93      14.82
