18

C      -3.87       0.84       9.31
H      -4.88       0.33      11.15
O      -4.92       1.53      13.28
O      -4.92      -1.27       9.32
C      -2.66       2.93       9.31
C      -4.23      -0.44       8.64
O      -3.78       3.50      13.28
C      -3.87       2.23      11.29
C      -1.73       3.88       8.64
O      -1.36       3.58       7.46
C      -3.06       1.77       8.65
H      -2.73       4.07      11.15
C      -4.23       2.44      12.72
C      -3.06       3.17      10.63
H      -2.73       1.58       7.63
C      -4.27       1.07      10.63
O      -3.78      -0.62       7.46
O      -1.36       4.90       9.32
