14

Cu      -8.09      10.74      15.18
C      -9.30       8.25      14.82
C      -9.30      10.25      17.65
Cu     -10.51      10.74      15.18
O     -10.44      11.08      13.28
O      -8.16      12.65      15.49
C      -9.30      13.22      15.54
C      -9.30      11.22      12.72
O      -8.16      10.39      17.09
O     -10.44       8.82      14.87
O      -8.16       8.82      14.87
O     -10.44      10.39      17.09
O     -10.44      12.65      15.49
O      -8.16      11.08      13.28
