14

O      -6.87      13.14       7.46
O      -4.38      14.83       9.32
C      -4.23      11.18       6.54
Cu      -4.04      13.07       8.58
C      -2.50      14.17       6.54
Cu      -5.25      13.77       6.60
O      -5.52      15.49       7.46
O      -5.74      12.48       9.32
C      -6.80      12.66       8.64
C      -5.07      15.66       8.64
O      -3.78      11.35       7.72
O      -3.56      14.36       5.86
O      -2.42      13.70       7.72
O      -4.92      12.01       5.86
